
OS:Version,
  {940ee55d-b2e9-4f01-958d-f14e78f081d6}, !- Handle
  3.3.0;                                  !- Version Identifier

OS:Building,
  {fb46c204-fb70-46b1-88e4-d84446091e68}, !- Handle
  Building 1,                             !- Name
  ,                                       !- Building Sector Type
  315,                                    !- North Axis {deg}
  ,                                       !- Nominal Floor to Floor Height {m}
  ,                                       !- Space Type Name
  ,                                       !- Default Construction Set Name
  ,                                       !- Default Schedule Set Name
  2,                                      !- Standards Number of Stories
  2,                                      !- Standards Number of Above Ground Stories
  ,                                       !- Standards Template
  multifamily,                            !- Standards Building Type
  2;                                      !- Standards Number of Living Units

OS:Facility,
  {343d49df-4ce6-4296-acd1-e8b0756867e1}; !- Handle

OS:Site,
  {82ba46e5-0ea4-4d50-b366-fa1f66e39e21}, !- Handle
  Denver-Aurora-Buckley AFB,              !- Name
  39.72,                                  !- Latitude {deg}
  -104.75,                                !- Longitude {deg}
  -7,                                     !- Time Zone {hr}
  1726,                                   !- Elevation {m}
  Suburbs;                                !- Terrain

OS:SimulationControl,
  {5a0172e1-b01c-424e-8a00-64ba7b480c3a}, !- Handle
  ,                                       !- Do Zone Sizing Calculation
  ,                                       !- Do System Sizing Calculation
  ,                                       !- Do Plant Sizing Calculation
  No;                                     !- Run Simulation for Sizing Periods

OS:Sizing:Parameters,
  {c33d2af5-73cf-4687-896c-cfab860a6adf}, !- Handle
  1.25,                                   !- Heating Sizing Factor
  1.15;                                   !- Cooling Sizing Factor

OS:Timestep,
  {43e98c8a-c268-459e-9ff6-d2c4c427a9ab}, !- Handle
  4;                                      !- Number of Timesteps per Hour

OS:ShadowCalculation,
  {f16aab13-3d17-4a8b-88df-065bc5117c44}, !- Handle
  PolygonClipping,                        !- Shading Calculation Method
  ,                                       !- Shading Calculation Update Frequency Method
  20,                                     !- Shading Calculation Update Frequency
  200,                                    !- Maximum Figures in Shadow Overlap Calculations
  ,                                       !- Polygon Clipping Algorithm
  512,                                    !- Pixel Counting Resolution
  DetailedSkyDiffuseModeling,             !- Sky Diffuse Modeling Algorithm
  No,                                     !- Output External Shading Calculation Results
  No,                                     !- Disable Self-Shading Within Shading Zone Groups
  No;                                     !- Disable Self-Shading From Shading Zone Groups to Other Zones

OS:HeatBalanceAlgorithm,
  {b6d4de3b-84b2-4263-ba17-613215fd8f99}, !- Handle
  ConductionTransferFunction,             !- Algorithm
  200;                                    !- Surface Temperature Upper Limit {C}

OS:RunPeriod,
  {3aa2fd7c-1853-4b9d-9493-16059161ce1c}, !- Handle
  Run Period 1,                           !- Name
  1,                                      !- Begin Month
  1,                                      !- Begin Day of Month
  12,                                     !- End Month
  31,                                     !- End Day of Month
  ,                                       !- Use Weather File Holidays and Special Days
  ,                                       !- Use Weather File Daylight Saving Period
  ,                                       !- Apply Weekend Holiday Rule
  ,                                       !- Use Weather File Rain Indicators
  ,                                       !- Use Weather File Snow Indicators
  ;                                       !- Number of Times Runperiod to be Repeated

OS:LifeCycleCost:Parameters,
  {331b7b2f-32fb-4797-8cb4-4768f9806ff5}, !- Handle
  ,                                       !- Analysis Type
  ,                                       !- Discounting Convention
  ,                                       !- Inflation Approach
  ,                                       !- Real Discount Rate
  ,                                       !- Nominal Discount Rate
  ,                                       !- Inflation
  ,                                       !- Base Date Month
  ,                                       !- Base Date Year
  ,                                       !- Service Date Month
  ,                                       !- Service Date Year
  ;                                       !- Length of Study Period in Years

OS:SurfaceConvectionAlgorithm:Outside,
  {d8b9265d-ce43-4c22-a749-968815b6cd6c}, !- Handle
  DOE-2;                                  !- Algorithm

OS:SurfaceConvectionAlgorithm:Inside,
  {54b89968-47f6-469e-91ac-3487ab8c494d}, !- Handle
  TARP;                                   !- Algorithm

OS:ZoneCapacitanceMultiplier:ResearchSpecial,
  {45a497a3-6f1b-40cd-badb-a18bcb8928b9}, !- Handle
  ,                                       !- Temperature Capacity Multiplier
  15,                                     !- Humidity Capacity Multiplier
  ;                                       !- Carbon Dioxide Capacity Multiplier

OS:YearDescription,
  {cfaf5de5-64f8-44e3-8862-324bcc7059e0}, !- Handle
  ,                                       !- Calendar Year
  Sunday,                                 !- Day of Week for Start Day
  ;                                       !- Is Leap Year

OS:AdditionalProperties,
  {aa780a73-529f-4516-a1c1-d3858897b4ab}, !- Handle
  {fb46c204-fb70-46b1-88e4-d84446091e68}, !- Object Name
  Building ID,                            !- Feature Name 1
  Integer,                                !- Feature Data Type 1
  37662,                                  !- Feature Value 1
  num_occupants,                          !- Feature Name 2
  Integer,                                !- Feature Data Type 2
  4,                                      !- Feature Value 2
  Schedules Path,                         !- Feature Name 3
  String,                                 !- Feature Data Type 3
  /var/simdata/openstudio/run/schedules.csv, !- Feature Value 3
  num_units,                              !- Feature Name 4
  Integer,                                !- Feature Data Type 4
  2,                                      !- Feature Value 4
  has_rear_units,                         !- Feature Name 5
  Boolean,                                !- Feature Data Type 5
  false,                                  !- Feature Value 5
  num_floors,                             !- Feature Name 6
  Integer,                                !- Feature Data Type 6
  2,                                      !- Feature Value 6
  horz_location,                          !- Feature Name 7
  String,                                 !- Feature Data Type 7
  None,                                   !- Feature Value 7
  level,                                  !- Feature Name 8
  String,                                 !- Feature Data Type 8
  Bottom,                                 !- Feature Value 8
  found_type,                             !- Feature Name 9
  String,                                 !- Feature Data Type 9
  crawlspace,                             !- Feature Value 9
  corridor_width,                         !- Feature Name 10
  Double,                                 !- Feature Data Type 10
  3.048,                                  !- Feature Value 10
  corridor_position,                      !- Feature Name 11
  String,                                 !- Feature Data Type 11
  Single Exterior (Front),                !- Feature Value 11
  has_water_heater_flue,                  !- Feature Name 12
  Boolean,                                !- Feature Data Type 12
  true,                                   !- Feature Value 12
  has_hvac_flue,                          !- Feature Name 13
  Boolean,                                !- Feature Data Type 13
  true,                                   !- Feature Value 13
  has_fireplace_chimney,                  !- Feature Name 14
  Boolean,                                !- Feature Data Type 14
  false;                                  !- Feature Value 14

OS:ClimateZones,
  {da23ba33-164d-46b8-880f-3ca36fd262ed}, !- Handle
  Building America,                       !- Climate Zone Institution Name 1
  ,                                       !- Climate Zone Document Name 1
  0,                                      !- Climate Zone Document Year 1
  Mixed-Humid,                            !- Climate Zone Value 1
  ASHRAE,                                 !- Climate Zone Institution Name 2
  ANSI/ASHRAE Standard 169,               !- Climate Zone Document Name 2
  2006,                                   !- Climate Zone Document Year 2
  ,                                       !- Climate Zone Value 2
  CEC,                                    !- Climate Zone Institution Name 3
  California Climate Zone Descriptions,   !- Climate Zone Document Name 3
  1995,                                   !- Climate Zone Document Year 3
  ;                                       !- Climate Zone Value 3

OS:Site:WaterMainsTemperature,
  {f776b732-6de3-4d34-9747-5ee707726694}, !- Handle
  Correlation,                            !- Calculation Method
  ,                                       !- Temperature Schedule Name
  13.5949429223745,                       !- Annual Average Outdoor Air Temperature {C}
  26.4645641321045;                       !- Maximum Difference In Monthly Average Outdoor Air Temperatures {deltaC}

OS:RunPeriodControl:DaylightSavingTime,
  {115196b9-6974-4a38-9a64-97f40f7f2433}, !- Handle
  3/10,                                   !- Start Date
  11/3;                                   !- End Date

OS:Site:GroundTemperature:Deep,
  {ce5d3f5c-735d-4bf3-8317-7cc9efb873d1}, !- Handle
  13.5949429223745,                       !- January Deep Ground Temperature {C}
  13.5949429223745,                       !- February Deep Ground Temperature {C}
  13.5949429223745,                       !- March Deep Ground Temperature {C}
  13.5949429223745,                       !- April Deep Ground Temperature {C}
  13.5949429223745,                       !- May Deep Ground Temperature {C}
  13.5949429223745,                       !- June Deep Ground Temperature {C}
  13.5949429223745,                       !- July Deep Ground Temperature {C}
  13.5949429223745,                       !- August Deep Ground Temperature {C}
  13.5949429223745,                       !- September Deep Ground Temperature {C}
  13.5949429223745,                       !- October Deep Ground Temperature {C}
  13.5949429223745,                       !- November Deep Ground Temperature {C}
  13.5949429223745;                       !- December Deep Ground Temperature {C}

OS:ThermalZone,
  {1d3d9494-c87e-4e5c-8257-e9eef54204c2}, !- Handle
  living zone,                            !- Name
  ,                                       !- Multiplier
  ,                                       !- Ceiling Height {m}
  ,                                       !- Volume {m3}
  ,                                       !- Floor Area {m2}
  ,                                       !- Zone Inside Convection Algorithm
  ,                                       !- Zone Outside Convection Algorithm
  ,                                       !- Zone Conditioning Equipment List Name
  {4a7eb700-50e5-49df-a1a8-2b8d00e08926}, !- Zone Air Inlet Port List
  {830715d8-e143-4f78-b945-6c28fdda9bfb}, !- Zone Air Exhaust Port List
  {7ad5093b-60b7-40a0-8694-45f4eb3e336d}, !- Zone Air Node Name
  {da358faa-bc34-4195-a062-b76bfb769c73}, !- Zone Return Air Port List
  ,                                       !- Primary Daylighting Control Name
  ,                                       !- Fraction of Zone Controlled by Primary Daylighting Control
  ,                                       !- Secondary Daylighting Control Name
  ,                                       !- Fraction of Zone Controlled by Secondary Daylighting Control
  ,                                       !- Illuminance Map Name
  ,                                       !- Group Rendering Name
  {d4707b23-e2d1-472a-9962-ab09a1bded06}, !- Thermostat Name
  No;                                     !- Use Ideal Air Loads

OS:Node,
  {d3cfe28f-ca9e-43ea-859c-4ad5accce6e7}, !- Handle
  Node 1,                                 !- Name
  {7ad5093b-60b7-40a0-8694-45f4eb3e336d}, !- Inlet Port
  ;                                       !- Outlet Port

OS:Connection,
  {7ad5093b-60b7-40a0-8694-45f4eb3e336d}, !- Handle
  {1d3d9494-c87e-4e5c-8257-e9eef54204c2}, !- Source Object
  11,                                     !- Outlet Port
  {d3cfe28f-ca9e-43ea-859c-4ad5accce6e7}, !- Target Object
  2;                                      !- Inlet Port

OS:PortList,
  {4a7eb700-50e5-49df-a1a8-2b8d00e08926}, !- Handle
  {1d3d9494-c87e-4e5c-8257-e9eef54204c2}, !- HVAC Component
  {e91f1823-ec5f-4b5c-9337-5964964eb39d}, !- Port 1
  {ef1b9a8a-878e-46aa-bf37-dd7d3182ac57}; !- Port 2

OS:PortList,
  {830715d8-e143-4f78-b945-6c28fdda9bfb}, !- Handle
  {1d3d9494-c87e-4e5c-8257-e9eef54204c2}; !- HVAC Component

OS:PortList,
  {da358faa-bc34-4195-a062-b76bfb769c73}, !- Handle
  {1d3d9494-c87e-4e5c-8257-e9eef54204c2}, !- HVAC Component
  {fbb15088-7d77-4a2a-b598-6d61995eded7}, !- Port 1
  {3939f075-e17c-4884-8c43-e50bb7dd1954}; !- Port 2

OS:Sizing:Zone,
  {a557598b-8729-4edf-86d5-6af8f9fa30d6}, !- Handle
  {1d3d9494-c87e-4e5c-8257-e9eef54204c2}, !- Zone or ZoneList Name
  SupplyAirTemperature,                   !- Zone Cooling Design Supply Air Temperature Input Method
  14,                                     !- Zone Cooling Design Supply Air Temperature {C}
  11.11,                                  !- Zone Cooling Design Supply Air Temperature Difference {deltaC}
  SupplyAirTemperature,                   !- Zone Heating Design Supply Air Temperature Input Method
  40,                                     !- Zone Heating Design Supply Air Temperature {C}
  11.11,                                  !- Zone Heating Design Supply Air Temperature Difference {deltaC}
  0.0085,                                 !- Zone Cooling Design Supply Air Humidity Ratio {kg-H2O/kg-air}
  0.008,                                  !- Zone Heating Design Supply Air Humidity Ratio {kg-H2O/kg-air}
  ,                                       !- Zone Heating Sizing Factor
  ,                                       !- Zone Cooling Sizing Factor
  DesignDay,                              !- Cooling Design Air Flow Method
  ,                                       !- Cooling Design Air Flow Rate {m3/s}
  ,                                       !- Cooling Minimum Air Flow per Zone Floor Area {m3/s-m2}
  ,                                       !- Cooling Minimum Air Flow {m3/s}
  ,                                       !- Cooling Minimum Air Flow Fraction
  DesignDay,                              !- Heating Design Air Flow Method
  ,                                       !- Heating Design Air Flow Rate {m3/s}
  ,                                       !- Heating Maximum Air Flow per Zone Floor Area {m3/s-m2}
  ,                                       !- Heating Maximum Air Flow {m3/s}
  ,                                       !- Heating Maximum Air Flow Fraction
  No,                                     !- Account for Dedicated Outdoor Air System
  NeutralSupplyAir,                       !- Dedicated Outdoor Air System Control Strategy
  autosize,                               !- Dedicated Outdoor Air Low Setpoint Temperature for Design {C}
  autosize;                               !- Dedicated Outdoor Air High Setpoint Temperature for Design {C}

OS:ZoneHVAC:EquipmentList,
  {74c9f115-f551-4ad6-883c-58178270a9a9}, !- Handle
  Zone HVAC Equipment List 1,             !- Name
  {1d3d9494-c87e-4e5c-8257-e9eef54204c2}, !- Thermal Zone
  SequentialLoad,                         !- Load Distribution Scheme
  {91028434-d022-480f-ade6-3388af835674}, !- Zone Equipment 1
  1,                                      !- Zone Equipment Cooling Sequence 1
  1,                                      !- Zone Equipment Heating or No-Load Sequence 1
  ,                                       !- Zone Equipment Sequential Cooling Fraction Schedule Name 1
  ,                                       !- Zone Equipment Sequential Heating Fraction Schedule Name 1
  {af3a4832-f369-4226-835d-08272e299551}, !- Zone Equipment 2
  2,                                      !- Zone Equipment Cooling Sequence 2
  2,                                      !- Zone Equipment Heating or No-Load Sequence 2
  ,                                       !- Zone Equipment Sequential Cooling Fraction Schedule Name 2
  ;                                       !- Zone Equipment Sequential Heating Fraction Schedule Name 2

OS:Space,
  {6cab953a-6c3a-4568-9280-917f033a1e67}, !- Handle
  living space,                           !- Name
  {179590c9-a55d-4dd4-a9da-3bef54e82910}, !- Space Type Name
  ,                                       !- Default Construction Set Name
  ,                                       !- Default Schedule Set Name
  ,                                       !- Direction of Relative North {deg}
  ,                                       !- X Origin {m}
  ,                                       !- Y Origin {m}
  ,                                       !- Z Origin {m}
  ,                                       !- Building Story Name
  {1d3d9494-c87e-4e5c-8257-e9eef54204c2}, !- Thermal Zone Name
  ,                                       !- Part of Total Floor Area
  ,                                       !- Design Specification Outdoor Air Object Name
  {0371f05e-5748-47d7-a1f7-1f680839b508}; !- Building Unit Name

OS:Surface,
  {c8c270d9-f42b-4e3d-ba9b-2d99ca17c676}, !- Handle
  Surface 1,                              !- Name
  Floor,                                  !- Surface Type
  {8cd06056-ce8b-4504-8ed0-56f1beb27111}, !- Construction Name
  {6cab953a-6c3a-4568-9280-917f033a1e67}, !- Space Name
  Surface,                                !- Outside Boundary Condition
  {551b8468-6bc2-4150-aff9-b7d5795a9966}, !- Outside Boundary Condition Object
  NoSun,                                  !- Sun Exposure
  NoWind,                                 !- Wind Exposure
  ,                                       !- View Factor to Ground
  ,                                       !- Number of Vertices
  0, -13.7950203746134, 0,                !- X,Y,Z Vertex 1 {m}
  0, 0, 0,                                !- X,Y,Z Vertex 2 {m}
  7.66390020811858, 0, 0,                 !- X,Y,Z Vertex 3 {m}
  7.66390020811858, -13.7950203746134, 0; !- X,Y,Z Vertex 4 {m}

OS:Surface,
  {dcb06f6a-0937-4ec6-9e51-a005153d0d6a}, !- Handle
  Surface 2,                              !- Name
  Wall,                                   !- Surface Type
  {53ecb8cf-eaa7-43bf-af9c-2fb60e09769d}, !- Construction Name
  {6cab953a-6c3a-4568-9280-917f033a1e67}, !- Space Name
  Outdoors,                               !- Outside Boundary Condition
  ,                                       !- Outside Boundary Condition Object
  SunExposed,                             !- Sun Exposure
  WindExposed,                            !- Wind Exposure
  ,                                       !- View Factor to Ground
  ,                                       !- Number of Vertices
  0, 0, 2.4384,                           !- X,Y,Z Vertex 1 {m}
  0, 0, 0,                                !- X,Y,Z Vertex 2 {m}
  0, -13.7950203746134, 0,                !- X,Y,Z Vertex 3 {m}
  0, -13.7950203746134, 2.4384;           !- X,Y,Z Vertex 4 {m}

OS:Surface,
  {d5c608cb-3351-4460-a03c-4efa9ec3210b}, !- Handle
  Surface 3,                              !- Name
  Wall,                                   !- Surface Type
  {53ecb8cf-eaa7-43bf-af9c-2fb60e09769d}, !- Construction Name
  {6cab953a-6c3a-4568-9280-917f033a1e67}, !- Space Name
  Outdoors,                               !- Outside Boundary Condition
  ,                                       !- Outside Boundary Condition Object
  SunExposed,                             !- Sun Exposure
  WindExposed,                            !- Wind Exposure
  ,                                       !- View Factor to Ground
  ,                                       !- Number of Vertices
  7.66390020811858, 0, 2.4384,            !- X,Y,Z Vertex 1 {m}
  7.66390020811858, 0, 0,                 !- X,Y,Z Vertex 2 {m}
  0, 0, 0,                                !- X,Y,Z Vertex 3 {m}
  0, 0, 2.4384;                           !- X,Y,Z Vertex 4 {m}

OS:Surface,
  {a1317d89-ad8f-435e-be8d-655dd6c7fb6b}, !- Handle
  Surface 4,                              !- Name
  Wall,                                   !- Surface Type
  {53ecb8cf-eaa7-43bf-af9c-2fb60e09769d}, !- Construction Name
  {6cab953a-6c3a-4568-9280-917f033a1e67}, !- Space Name
  Outdoors,                               !- Outside Boundary Condition
  ,                                       !- Outside Boundary Condition Object
  SunExposed,                             !- Sun Exposure
  WindExposed,                            !- Wind Exposure
  ,                                       !- View Factor to Ground
  ,                                       !- Number of Vertices
  7.66390020811858, -13.7950203746134, 2.4384, !- X,Y,Z Vertex 1 {m}
  7.66390020811858, -13.7950203746134, 0, !- X,Y,Z Vertex 2 {m}
  7.66390020811858, 0, 0,                 !- X,Y,Z Vertex 3 {m}
  7.66390020811858, 0, 2.4384;            !- X,Y,Z Vertex 4 {m}

OS:Surface,
  {e93c421c-26b0-44eb-bfc3-7f146e7db2c5}, !- Handle
  Surface 5,                              !- Name
  Wall,                                   !- Surface Type
  {53ecb8cf-eaa7-43bf-af9c-2fb60e09769d}, !- Construction Name
  {6cab953a-6c3a-4568-9280-917f033a1e67}, !- Space Name
  Outdoors,                               !- Outside Boundary Condition
  ,                                       !- Outside Boundary Condition Object
  SunExposed,                             !- Sun Exposure
  WindExposed,                            !- Wind Exposure
  ,                                       !- View Factor to Ground
  ,                                       !- Number of Vertices
  1.04865714285714, -13.7950203746134, -3.04991909949592e-07, !- X,Y,Z Vertex 1 {m}
  7.66390020811858, -13.7950203746134, 0, !- X,Y,Z Vertex 2 {m}
  7.66390020811858, -13.7950203746134, 2.4384, !- X,Y,Z Vertex 3 {m}
  1.04865714285714, -13.7950203746134, 2.43840030499191; !- X,Y,Z Vertex 4 {m}

OS:Surface,
  {2d1b7071-f4c6-4498-89be-e6a83e115b6f}, !- Handle
  Surface 6,                              !- Name
  RoofCeiling,                            !- Surface Type
  {38f1a00e-495b-4dd9-8e31-76ed0f20a51a}, !- Construction Name
  {6cab953a-6c3a-4568-9280-917f033a1e67}, !- Space Name
  Adiabatic,                              !- Outside Boundary Condition
  ,                                       !- Outside Boundary Condition Object
  NoSun,                                  !- Sun Exposure
  NoWind,                                 !- Wind Exposure
  ,                                       !- View Factor to Ground
  ,                                       !- Number of Vertices
  7.66390020811858, -13.7950203746134, 2.4384, !- X,Y,Z Vertex 1 {m}
  7.66390020811858, 0, 2.4384,            !- X,Y,Z Vertex 2 {m}
  0, 0, 2.4384,                           !- X,Y,Z Vertex 3 {m}
  0, -13.7950203746134, 2.4384;           !- X,Y,Z Vertex 4 {m}

OS:SpaceType,
  {179590c9-a55d-4dd4-a9da-3bef54e82910}, !- Handle
  Space Type 1,                           !- Name
  ,                                       !- Default Construction Set Name
  ,                                       !- Default Schedule Set Name
  ,                                       !- Group Rendering Name
  ,                                       !- Design Specification Outdoor Air Object Name
  ,                                       !- Standards Template
  ,                                       !- Standards Building Type
  living;                                 !- Standards Space Type

OS:ShadingSurface,
  {c1335b8d-5b88-4cf3-8f10-031bda41c49d}, !- Handle
  Corridor shading,                       !- Name
  ,                                       !- Construction Name
  {f236486b-5e3c-40ed-ba49-327afd67ec1d}, !- Shading Surface Group Name
  ,                                       !- Transmittance Schedule Name
  ,                                       !- Number of Vertices
  0, -16.8430203746134, 2.4384,           !- X,Y,Z Vertex 1 {m}
  7.66390020811858, -16.8430203746134, 2.4384, !- X,Y,Z Vertex 2 {m}
  7.66390020811858, -13.7950203746134, 2.4384, !- X,Y,Z Vertex 3 {m}
  0, -13.7950203746134, 2.4384;           !- X,Y,Z Vertex 4 {m}

OS:ShadingSurfaceGroup,
  {f236486b-5e3c-40ed-ba49-327afd67ec1d}, !- Handle
  Shading Surface Group 1,                !- Name
  Building;                               !- Shading Surface Type

OS:Space,
  {1098c580-1780-4c63-b420-c937a5d44518}, !- Handle
  crawl space,                            !- Name
  {86dd4a23-8395-4fa2-a2fe-9688d3d80837}, !- Space Type Name
  ,                                       !- Default Construction Set Name
  ,                                       !- Default Schedule Set Name
  -0,                                     !- Direction of Relative North {deg}
  0,                                      !- X Origin {m}
  0,                                      !- Y Origin {m}
  0,                                      !- Z Origin {m}
  ,                                       !- Building Story Name
  {29177dd3-90a8-41aa-a972-7fc3c91c3295}; !- Thermal Zone Name

OS:Surface,
  {7cd9e69e-a519-4175-ab30-8dd1a4d234a0}, !- Handle
  Surface 7,                              !- Name
  Floor,                                  !- Surface Type
  {93f7a6b1-e64b-45f9-8e61-e7ab6bc066c1}, !- Construction Name
  {1098c580-1780-4c63-b420-c937a5d44518}, !- Space Name
  Foundation,                             !- Outside Boundary Condition
  {d9a9d6e1-34a8-400a-a38c-8e0e3250ead4}, !- Outside Boundary Condition Object
  NoSun,                                  !- Sun Exposure
  NoWind,                                 !- Wind Exposure
  ,                                       !- View Factor to Ground
  ,                                       !- Number of Vertices
  0, -13.7950203746134, -1.2192,          !- X,Y,Z Vertex 1 {m}
  0, 0, -1.2192,                          !- X,Y,Z Vertex 2 {m}
  7.66390020811858, 0, -1.2192,           !- X,Y,Z Vertex 3 {m}
  7.66390020811858, -13.7950203746134, -1.2192; !- X,Y,Z Vertex 4 {m}

OS:Surface,
  {b1605167-9fb2-4a48-b83f-166ba6ac2f1e}, !- Handle
  Surface 8,                              !- Name
  Wall,                                   !- Surface Type
  {790fe253-0c49-49bc-81d3-4ae39b146e0b}, !- Construction Name
  {1098c580-1780-4c63-b420-c937a5d44518}, !- Space Name
  Foundation,                             !- Outside Boundary Condition
  {d9a9d6e1-34a8-400a-a38c-8e0e3250ead4}, !- Outside Boundary Condition Object
  NoSun,                                  !- Sun Exposure
  NoWind,                                 !- Wind Exposure
  ,                                       !- View Factor to Ground
  ,                                       !- Number of Vertices
  0, 0, 0,                                !- X,Y,Z Vertex 1 {m}
  0, 0, -1.2192,                          !- X,Y,Z Vertex 2 {m}
  0, -13.7950203746134, -1.2192,          !- X,Y,Z Vertex 3 {m}
  0, -13.7950203746134, 0;                !- X,Y,Z Vertex 4 {m}

OS:Surface,
  {86281429-0939-4b35-9aab-94c7ace3ebcd}, !- Handle
  Surface 9,                              !- Name
  Wall,                                   !- Surface Type
  {790fe253-0c49-49bc-81d3-4ae39b146e0b}, !- Construction Name
  {1098c580-1780-4c63-b420-c937a5d44518}, !- Space Name
  Foundation,                             !- Outside Boundary Condition
  {d9a9d6e1-34a8-400a-a38c-8e0e3250ead4}, !- Outside Boundary Condition Object
  NoSun,                                  !- Sun Exposure
  NoWind,                                 !- Wind Exposure
  ,                                       !- View Factor to Ground
  ,                                       !- Number of Vertices
  7.66390020811858, 0, 0,                 !- X,Y,Z Vertex 1 {m}
  7.66390020811858, 0, -1.2192,           !- X,Y,Z Vertex 2 {m}
  0, 0, -1.2192,                          !- X,Y,Z Vertex 3 {m}
  0, 0, 0;                                !- X,Y,Z Vertex 4 {m}

OS:Surface,
  {8af38bfc-7f14-427f-a2ed-b0b4e557c68c}, !- Handle
  Surface 10,                             !- Name
  Wall,                                   !- Surface Type
  {790fe253-0c49-49bc-81d3-4ae39b146e0b}, !- Construction Name
  {1098c580-1780-4c63-b420-c937a5d44518}, !- Space Name
  Foundation,                             !- Outside Boundary Condition
  {d9a9d6e1-34a8-400a-a38c-8e0e3250ead4}, !- Outside Boundary Condition Object
  NoSun,                                  !- Sun Exposure
  NoWind,                                 !- Wind Exposure
  ,                                       !- View Factor to Ground
  ,                                       !- Number of Vertices
  7.66390020811858, -13.7950203746134, 0, !- X,Y,Z Vertex 1 {m}
  7.66390020811858, -13.7950203746134, -1.2192, !- X,Y,Z Vertex 2 {m}
  7.66390020811858, 0, -1.2192,           !- X,Y,Z Vertex 3 {m}
  7.66390020811858, 0, 0;                 !- X,Y,Z Vertex 4 {m}

OS:Surface,
  {beb7afc8-e817-403c-beef-d130be01039b}, !- Handle