
OS:Version,
  {a4d4a5ab-b03f-401c-85a9-47dff2d5ed7c}, !- Handle
  3.3.0;                                  !- Version Identifier

OS:Building,
  {5c572c23-7445-4f24-ad95-6aebd5f9d8cc}, !- Handle
  Building 1,                             !- Name
  ,                                       !- Building Sector Type
  180,                                    !- North Axis {deg}
  ,                                       !- Nominal Floor to Floor Height {m}
  ,                                       !- Space Type Name
  ,                                       !- Default Construction Set Name
  ,                                       !- Default Schedule Set Name
  2,                                      !- Standards Number of Stories
  2,                                      !- Standards Number of Above Ground Stories
  ,                                       !- Standards Template
  singlefamilydetached,                   !- Standards Building Type
  1;                                      !- Standards Number of Living Units

OS:Facility,
  {83ca05b5-c723-44d8-8ac3-ce9def0388e2}; !- Handle

OS:Site,
  {c3a7feed-d03a-441e-8afe-581bfb2d0165}, !- Handle
  Denver-Aurora-Buckley AFB,              !- Name
  39.72,                                  !- Latitude {deg}
  -104.75,                                !- Longitude {deg}
  -7,                                     !- Time Zone {hr}
  1726,                                   !- Elevation {m}
  Suburbs;                                !- Terrain

OS:SimulationControl,
  {9a16d5ed-7a00-4e53-b2b7-850e5a6beb82}, !- Handle
  ,                                       !- Do Zone Sizing Calculation
  ,                                       !- Do System Sizing Calculation
  ,                                       !- Do Plant Sizing Calculation
  No;                                     !- Run Simulation for Sizing Periods

OS:Sizing:Parameters,
  {e5c8ab95-c535-4385-8f2f-284fa6dc4e13}, !- Handle
  1.25,                                   !- Heating Sizing Factor
  1.15;                                   !- Cooling Sizing Factor

OS:Timestep,
  {f595f7c0-0680-4303-9d8e-ce25b1657b6d}, !- Handle
  4;                                      !- Number of Timesteps per Hour

OS:ShadowCalculation,
  {63eaef23-9b98-4a97-820f-36218114f01f}, !- Handle
  PolygonClipping,                        !- Shading Calculation Method
  ,                                       !- Shading Calculation Update Frequency Method
  20,                                     !- Shading Calculation Update Frequency
  200,                                    !- Maximum Figures in Shadow Overlap Calculations
  ,                                       !- Polygon Clipping Algorithm
  512,                                    !- Pixel Counting Resolution
  DetailedSkyDiffuseModeling,             !- Sky Diffuse Modeling Algorithm
  No,                                     !- Output External Shading Calculation Results
  No,                                     !- Disable Self-Shading Within Shading Zone Groups
  No;                                     !- Disable Self-Shading From Shading Zone Groups to Other Zones

OS:HeatBalanceAlgorithm,
  {22c25d91-8dc2-433a-b35a-b349aaf6d338}, !- Handle
  ConductionTransferFunction,             !- Algorithm
  200;                                    !- Surface Temperature Upper Limit {C}

OS:RunPeriod,
  {5ded8963-0ff4-44d9-9c5a-e928df0e7762}, !- Handle
  Run Period 1,                           !- Name
  1,                                      !- Begin Month
  1,                                      !- Begin Day of Month
  12,                                     !- End Month
  31,                                     !- End Day of Month
  ,                                       !- Use Weather File Holidays and Special Days
  ,                                       !- Use Weather File Daylight Saving Period
  ,                                       !- Apply Weekend Holiday Rule
  ,                                       !- Use Weather File Rain Indicators
  ,                                       !- Use Weather File Snow Indicators
  ;                                       !- Number of Times Runperiod to be Repeated

OS:LifeCycleCost:Parameters,
  {ab5606d0-386f-4e95-a698-7129914d1e55}, !- Handle
  ,                                       !- Analysis Type
  ,                                       !- Discounting Convention
  ,                                       !- Inflation Approach
  ,                                       !- Real Discount Rate
  ,                                       !- Nominal Discount Rate
  ,                                       !- Inflation
  ,                                       !- Base Date Month
  ,                                       !- Base Date Year
  ,                                       !- Service Date Month
  ,                                       !- Service Date Year
  ;                                       !- Length of Study Period in Years

OS:SurfaceConvectionAlgorithm:Outside,
  {95671aa7-1df5-4d83-9992-795b094f536f}, !- Handle
  DOE-2;                                  !- Algorithm

OS:SurfaceConvectionAlgorithm:Inside,
  {4c81af80-7e4f-4cad-a748-02135bec1c9a}, !- Handle
  TARP;                                   !- Algorithm

OS:ZoneCapacitanceMultiplier:ResearchSpecial,
  {5054a88e-0466-4949-813a-58dfe70d8295}, !- Handle
  ,                                       !- Temperature Capacity Multiplier
  15,                                     !- Humidity Capacity Multiplier
  ;                                       !- Carbon Dioxide Capacity Multiplier

OS:YearDescription,
  {2e111bbf-9920-4b07-b6b4-458a529edda4}, !- Handle
  ,                                       !- Calendar Year
  Sunday,                                 !- Day of Week for Start Day
  ;                                       !- Is Leap Year

OS:AdditionalProperties,
  {660b7d49-6807-469f-b5c2-4966e718b843}, !- Handle
  {5c572c23-7445-4f24-ad95-6aebd5f9d8cc}, !- Object Name
  Building ID,                            !- Feature Name 1
  Integer,                                !- Feature Data Type 1
  30719,                                  !- Feature Value 1
  num_occupants,                          !- Feature Name 2
  Integer,                                !- Feature Data Type 2
  4,                                      !- Feature Value 2
  Schedules Path,                         !- Feature Name 3
  String,                                 !- Feature Data Type 3
  /var/simdata/openstudio/run/schedules.csv, !- Feature Value 3
  Total Units Modeled,                    !- Feature Name 4
  Integer,                                !- Feature Data Type 4
  1,                                      !- Feature Value 4
  has_water_heater_flue,                  !- Feature Name 5
  Boolean,                                !- Feature Data Type 5
  true,                                   !- Feature Value 5
  has_hvac_flue,                          !- Feature Name 6
  Boolean,                                !- Feature Data Type 6
  false,                                  !- Feature Value 6
  has_fireplace_chimney,                  !- Feature Name 7
  Boolean,                                !- Feature Data Type 7
  false;                                  !- Feature Value 7

OS:ClimateZones,
  {e7b6e2d4-1254-4f5a-8fda-f72ff03b1e08}, !- Handle
  Building America,                       !- Climate Zone Institution Name 1
  ,                                       !- Climate Zone Document Name 1
  0,                                      !- Climate Zone Document Year 1
  Hot-Humid,                              !- Climate Zone Value 1
  ASHRAE,                                 !- Climate Zone Institution Name 2
  ANSI/ASHRAE Standard 169,               !- Climate Zone Document Name 2
  2006,                                   !- Climate Zone Document Year 2
  ,                                       !- Climate Zone Value 2
  CEC,                                    !- Climate Zone Institution Name 3
  California Climate Zone Descriptions,   !- Climate Zone Document Name 3
  1995,                                   !- Climate Zone Document Year 3
  ;                                       !- Climate Zone Value 3

OS:Site:WaterMainsTemperature,
  {01077d9c-9ca7-43c2-8f91-011413bf2afb}, !- Handle
  Correlation,                            !- Calculation Method
  ,                                       !- Temperature Schedule Name
  20.9702625570777,                       !- Annual Average Outdoor Air Temperature {C}
  14.4513440860215;                       !- Maximum Difference In Monthly Average Outdoor Air Temperatures {deltaC}

OS:RunPeriodControl:DaylightSavingTime,
  {81a4d12c-646f-482d-b570-946c039f25bd}, !- Handle
  3/10,                                   !- Start Date
  11/3;                                   !- End Date

OS:Site:GroundTemperature:Deep,
  {5306b48e-e476-4b8c-8bb4-de9c4ca0c16a}, !- Handle
  20.9702625570777,                       !- January Deep Ground Temperature {C}
  20.9702625570777,                       !- February Deep Ground Temperature {C}
  20.9702625570777,                       !- March Deep Ground Temperature {C}
  20.9702625570777,                       !- April Deep Ground Temperature {C}
  20.9702625570777,                       !- May Deep Ground Temperature {C}
  20.9702625570777,                       !- June Deep Ground Temperature {C}
  20.9702625570777,                       !- July Deep Ground Temperature {C}
  20.9702625570777,                       !- August Deep Ground Temperature {C}
  20.9702625570777,                       !- September Deep Ground Temperature {C}
  20.9702625570777,                       !- October Deep Ground Temperature {C}
  20.9702625570777,                       !- November Deep Ground Temperature {C}
  20.9702625570777;                       !- December Deep Ground Temperature {C}

OS:ThermalZone,
  {149ef614-aed6-4f67-aa46-9d0f7dfd08a1}, !- Handle
  living zone,                            !- Name
  ,                                       !- Multiplier
  ,                                       !- Ceiling Height {m}
  ,                                       !- Volume {m3}
  ,                                       !- Floor Area {m2}
  ,                                       !- Zone Inside Convection Algorithm
  ,                                       !- Zone Outside Convection Algorithm
  ,                                       !- Zone Conditioning Equipment List Name
  {b66e7426-a096-43dc-b0cc-273c63a476b1}, !- Zone Air Inlet Port List
  {6ac5e30d-9236-4b17-91c2-cd0000455718}, !- Zone Air Exhaust Port List
  {2e5e848b-db7e-4f2d-8056-a1949f504430}, !- Zone Air Node Name
  {9293acb9-b551-45b6-8442-efbe4212fea5}, !- Zone Return Air Port List
  ,                                       !- Primary Daylighting Control Name
  ,                                       !- Fraction of Zone Controlled by Primary Daylighting Control
  ,                                       !- Secondary Daylighting Control Name
  ,                                       !- Fraction of Zone Controlled by Secondary Daylighting Control
  ,                                       !- Illuminance Map Name
  {0497e629-25d3-4b44-9fd0-5d783b1ca30c}, !- Group Rendering Name
  {7913e1a8-98a1-47ff-9695-fab9e574c151}, !- Thermostat Name
  No;                                     !- Use Ideal Air Loads

OS:Node,
  {5ed74a16-2ae6-4bd7-8320-1c4361a75633}, !- Handle
  Node 1,                                 !- Name
  {2e5e848b-db7e-4f2d-8056-a1949f504430}, !- Inlet Port
  ;                                       !- Outlet Port

OS:Connection,
  {2e5e848b-db7e-4f2d-8056-a1949f504430}, !- Handle
  {149ef614-aed6-4f67-aa46-9d0f7dfd08a1}, !- Source Object
  11,                                     !- Outlet Port
  {5ed74a16-2ae6-4bd7-8320-1c4361a75633}, !- Target Object
  2;                                      !- Inlet Port

OS:PortList,
  {b66e7426-a096-43dc-b0cc-273c63a476b1}, !- Handle
  {149ef614-aed6-4f67-aa46-9d0f7dfd08a1}, !- HVAC Component
  {5aeb45c1-567b-46f5-8eac-059a4ecfa91c}, !- Port 1
  {3e8e54ac-02ec-4dcb-9591-655823cd330c}; !- Port 2

OS:PortList,
  {6ac5e30d-9236-4b17-91c2-cd0000455718}, !- Handle
  {149ef614-aed6-4f67-aa46-9d0f7dfd08a1}; !- HVAC Component

OS:PortList,
  {9293acb9-b551-45b6-8442-efbe4212fea5}, !- Handle
  {149ef614-aed6-4f67-aa46-9d0f7dfd08a1}, !- HVAC Component
  {cd2292be-63b2-4a49-9a57-6fd3f445cf26}, !- Port 1
  {23a5027a-aeb6-4f7d-8103-4d2cb6090a97}; !- Port 2

OS:Sizing:Zone,
  {5c2a85af-5eff-47a9-916d-3ad49ca89e93}, !- Handle
  {149ef614-aed6-4f67-aa46-9d0f7dfd08a1}, !- Zone or ZoneList Name
  SupplyAirTemperature,                   !- Zone Cooling Design Supply Air Temperature Input Method
  14,                                     !- Zone Cooling Design Supply Air Temperature {C}
  11.11,                                  !- Zone Cooling Design Supply Air Temperature Difference {deltaC}
  SupplyAirTemperature,                   !- Zone Heating Design Supply Air Temperature Input Method
  40,                                     !- Zone Heating Design Supply Air Temperature {C}
  11.11,                                  !- Zone Heating Design Supply Air Temperature Difference {deltaC}
  0.0085,                                 !- Zone Cooling Design Supply Air Humidity Ratio {kg-H2O/kg-air}
  0.008,                                  !- Zone Heating Design Supply Air Humidity Ratio {kg-H2O/kg-air}
  ,                                       !- Zone Heating Sizing Factor
  ,                                       !- Zone Cooling Sizing Factor
  DesignDay,                              !- Cooling Design Air Flow Method
  ,                                       !- Cooling Design Air Flow Rate {m3/s}
  ,                                       !- Cooling Minimum Air Flow per Zone Floor Area {m3/s-m2}
  ,                                       !- Cooling Minimum Air Flow {m3/s}
  ,                                       !- Cooling Minimum Air Flow Fraction
  DesignDay,                              !- Heating Design Air Flow Method
  ,                                       !- Heating Design Air Flow Rate {m3/s}
  ,                                       !- Heating Maximum Air Flow per Zone Floor Area {m3/s-m2}
  ,                                       !- Heating Maximum Air Flow {m3/s}
  ,                                       !- Heating Maximum Air Flow Fraction
  No,                                     !- Account for Dedicated Outdoor Air System
  NeutralSupplyAir,                       !- Dedicated Outdoor Air System Control Strategy
  autosize,                               !- Dedicated Outdoor Air Low Setpoint Temperature for Design {C}
  autosize;                               !- Dedicated Outdoor Air High Setpoint Temperature for Design {C}

OS:ZoneHVAC:EquipmentList,
  {d09661ce-2009-41f4-8986-dabd871a8fd9}, !- Handle
  Zone HVAC Equipment List 1,             !- Name
  {149ef614-aed6-4f67-aa46-9d0f7dfd08a1}, !- Thermal Zone
  SequentialLoad,                         !- Load Distribution Scheme
  {4a99233a-5b65-45ae-b1cc-84ca93e22837}, !- Zone Equipment 1
  1,                                      !- Zone Equipment Cooling Sequence 1
  1,                                      !- Zone Equipment Heating or No-Load Sequence 1
  ,                                       !- Zone Equipment Sequential Cooling Fraction Schedule Name 1
  ,                                       !- Zone Equipment Sequential Heating Fraction Schedule Name 1
  {95a676a0-7e3f-4b93-924d-f23507a54774}, !- Zone Equipment 2
  2,                                      !- Zone Equipment Cooling Sequence 2
  2,                                      !- Zone Equipment Heating or No-Load Sequence 2
  ,                                       !- Zone Equipment Sequential Cooling Fraction Schedule Name 2
  ;                                       !- Zone Equipment Sequential Heating Fraction Schedule Name 2

OS:ThermalZone,
  {dc8fe525-df98-4a5c-8d67-c721c0154c16}, !- Handle
  garage zone,                            !- Name
  ,                                       !- Multiplier
  ,                                       !- Ceiling Height {m}
  ,                                       !- Volume {m3}
  ,                                       !- Floor Area {m2}
  ,                                       !- Zone Inside Convection Algorithm
  ,                                       !- Zone Outside Convection Algorithm
  ,                                       !- Zone Conditioning Equipment List Name
  {fb670246-da71-4ff8-9833-fa8316804ec0}, !- Zone Air Inlet Port List
  {e69d883a-11a5-4622-a8e3-42ec88aed6b0}, !- Zone Air Exhaust Port List
  {cc7e9617-0de8-48b6-9564-107b684f98a9}, !- Zone Air Node Name
  {bbca7515-174d-4e36-84d7-f8808740c21d}, !- Zone Return Air Port List
  ,                                       !- Primary Daylighting Control Name
  ,                                       !- Fraction of Zone Controlled by Primary Daylighting Control
  ,                                       !- Secondary Daylighting Control Name
  ,                                       !- Fraction of Zone Controlled by Secondary Daylighting Control
  ,                                       !- Illuminance Map Name
  {bb98e567-6cb2-422e-8220-91a5e69e0f32}, !- Group Rendering Name
  ,                                       !- Thermostat Name
  No;                                     !- Use Ideal Air Loads

OS:Node,
  {685e107f-fc30-4737-a32e-f453bf6f1ad8}, !- Handle
  Node 2,                                 !- Name
  {cc7e9617-0de8-48b6-9564-107b684f98a9}, !- Inlet Port
  ;                                       !- Outlet Port

OS:Connection,
  {cc7e9617-0de8-48b6-9564-107b684f98a9}, !- Handle
  {dc8fe525-df98-4a5c-8d67-c721c0154c16}, !- Source Object
  11,                                     !- Outlet Port
  {685e107f-fc30-4737-a32e-f453bf6f1ad8}, !- Target Object
  2;                                      !- Inlet Port

OS:PortList,
  {fb670246-da71-4ff8-9833-fa8316804ec0}, !- Handle
  {dc8fe525-df98-4a5c-8d67-c721c0154c16}; !- HVAC Component

OS:PortList,
  {e69d883a-11a5-4622-a8e3-42ec88aed6b0}, !- Handle
  {dc8fe525-df98-4a5c-8d67-c721c0154c16}; !- HVAC Component

OS:PortList,
  {bbca7515-174d-4e36-84d7-f8808740c21d}, !- Handle
  {dc8fe525-df98-4a5c-8d67-c721c0154c16}; !- HVAC Component

OS:Sizing:Zone,
  {08420163-f02d-422a-bdc0-c44a5420e653}, !- Handle
  {dc8fe525-df98-4a5c-8d67-c721c0154c16}, !- Zone or ZoneList Name
  SupplyAirTemperature,                   !- Zone Cooling Design Supply Air Temperature Input Method
  14,                                     !- Zone Cooling Design Supply Air Temperature {C}
  11.11,                                  !- Zone Cooling Design Supply Air Temperature Difference {deltaC}
  SupplyAirTemperature,                   !- Zone Heating Design Supply Air Temperature Input Method
  40,                                     !- Zone Heating Design Supply Air Temperature {C}
  11.11,                                  !- Zone Heating Design Supply Air Temperature Difference {deltaC}
  0.0085,                                 !- Zone Cooling Design Supply Air Humidity Ratio {kg-H2O/kg-air}
  0.008,                                  !- Zone Heating Design Supply Air Humidity Ratio {kg-H2O/kg-air}
  ,                                       !- Zone Heating Sizing Factor
  ,                                       !- Zone Cooling Sizing Factor
  DesignDay,                              !- Cooling Design Air Flow Method
  ,                                       !- Cooling Design Air Flow Rate {m3/s}
  ,                                       !- Cooling Minimum Air Flow per Zone Floor Area {m3/s-m2}
  ,                                       !- Cooling Minimum Air Flow {m3/s}
  ,                                       !- Cooling Minimum Air Flow Fraction
  DesignDay,                              !- Heating Design Air Flow Method
  ,                                       !- Heating Design Air Flow Rate {m3/s}
  ,                                       !- Heating Maximum Air Flow per Zone Floor Area {m3/s-m2}
  ,                                       !- Heating Maximum Air Flow {m3/s}
  ,                                       !- Heating Maximum Air Flow Fraction
  No,                                     !- Account for Dedicated Outdoor Air System
  NeutralSupplyAir,                       !- Dedicated Outdoor Air System Control Strategy
  autosize,                               !- Dedicated Outdoor Air Low Setpoint Temperature for Design {C}
  autosize;                               !- Dedicated Outdoor Air High Setpoint Temperature for Design {C}

OS:ZoneHVAC:EquipmentList,
  {c8183e5f-5e00-46c9-8ee0-e390223dc1ed}, !- Handle
  Zone HVAC Equipment List 2,             !- Name
  {dc8fe525-df98-4a5c-8d67-c721c0154c16}; !- Thermal Zone

OS:Space,
  {e09cc32a-b805-403b-b990-32ac846d72cf}, !- Handle
  garage space,                           !- Name
  {eec430db-b1d2-42b8-a848-557dffccc457}, !- Space Type Name
  ,                                       !- Default Construction Set Name
  ,                                       !- Default Schedule Set Name
  -0,                                     !- Direction of Relative North {deg}
  0,                                      !- X Origin {m}
  0,                                      !- Y Origin {m}
  0,                                      !- Z Origin {m}
  ,                                       !- Building Story Name
  {dc8fe525-df98-4a5c-8d67-c721c0154c16}; !- Thermal Zone Name

OS:Surface,
  {2c232b5c-ddca-4801-9b9c-f0e33bc96eae}, !- Handle
  Surface 1,                              !- Name
  Floor,                                  !- Surface Type
  {8c872d7f-e7e4-4641-9dff-4df68d331319}, !- Construction Name
  {e09cc32a-b805-403b-b990-32ac846d72cf}, !- Space Name
  Foundation,                             !- Outside Boundary Condition
  {af64ff75-14c1-45a0-ad73-7d0e548c4edd}, !- Outside Boundary Condition Object
  NoSun,                                  !- Sun Exposure
  NoWind,                                 !- Wind Exposure
  ,                                       !- View Factor to Ground
  ,                                       !- Number of Vertices
  5.64061751524953, -3.6576, 0,           !- X,Y,Z Vertex 1 {m}
  5.64061751524953, 3.6576, 0,            !- X,Y,Z Vertex 2 {m}
  16.6134175152495, 3.6576, 0,            !- X,Y,Z Vertex 3 {m}
  16.6134175152495, -3.6576, 0;           !- X,Y,Z Vertex 4 {m}

OS:Surface,
  {e3a1c732-aca4-4ada-9ace-504c1c0ebaf9}, !- Handle
  Surface 2,                              !- Name
  Wall,                                   !- Surface Type
  {3606ce2d-f7c0-4eda-8f9d-68b050eb62cb}, !- Construction Name
  {e09cc32a-b805-403b-b990-32ac846d72cf}, !- Space Name
  Surface,                                !- Outside Boundary Condition
  {a8a25c73-3d58-4b90-839d-a6e8d195ebb6}, !- Outside Boundary Condition Object
  NoSun,                                  !- Sun Exposure
  NoWind,                                 !- Wind Exposure
  ,                                       !- View Factor to Ground
  ,                                       !- Number of Vertices
  5.64061751524953, 3.6576, 2.4384,       !- X,Y,Z Vertex 1 {m}
  5.64061751524953, 3.6576, 0,            !- X,Y,Z Vertex 2 {m}
  5.64061751524953, 0, 0,                 !- X,Y,Z Vertex 3 {m}
  5.64061751524953, 0, 2.4384;            !- X,Y,Z Vertex 4 {m}

OS:Surface,
  {cd9748f9-3a5c-49fd-af2b-3db82abf41db}, !- Handle
  Surface 3,                              !- Name
  Wall,                                   !- Surface Type
  {3606ce2d-f7c0-4eda-8f9d-68b050eb62cb}, !- Construction Name
  {e09cc32a-b805-403b-b990-32ac846d72cf}, !- Space Name
  Surface,                                !- Outside Boundary Condition
  {3010941f-a2b4-49dc-8358-fef9a91a37dd}, !- Outside Boundary Condition Object
  NoSun,                                  !- Sun Exposure
  NoWind,                                 !- Wind Exposure
  ,                                       !- View Factor to Ground
  ,                                       !- Number of Vertices
  16.6134175152495, 3.6576, 2.4384,       !- X,Y,Z Vertex 1 {m}
  16.6134175152495, 3.6576, 0,            !- X,Y,Z Vertex 2 {m}
  5.64061751524953, 3.6576, 0,            !- X,Y,Z Vertex 3 {m}
  5.64061751524953, 3.6576, 2.4384;       !- X,Y,Z Vertex 4 {m}

OS:Surface,
  {54ff76e2-d32e-4971-8907-5a9a66b58848}, !- Handle
  Surface 4,                              !- Name
  Wall,                                   !- Surface Type
  {06cc1b23-39ac-4c73-9a18-c008c0cf03e8}, !- Construction Name
  {e09cc32a-b805-403b-b990-32ac846d72cf}, !- Space Name
  Outdoors,                               !- Outside Boundary Condition
  ,                                       !- Outside Boundary Condition Object
  SunExposed,                             !- Sun Exposure
  WindExposed,                            !- Wind Exposure
  ,                                       !- View Factor to Ground
  ,                                       !- Number of Vertices
  16.6134175152495, -3.6576, 2.4384,      !- X,Y,Z Vertex 1 {m}
  16.6134175152495, -3.6576, 0,           !- X,Y,Z Vertex 2 {m}
  16.6134175152495, 3.6576, 0,            !- X,Y,Z Vertex 3 {m}
  16.6134175152495, 3.6576, 2.4384;       !- X,Y,Z Vertex 4 {m}

OS:Surface,
  {51e92388-593d-4b60-8b64-db73f1847c46}, !- Handle
  Surface 5,                              !- Name
  Wall,                                   !- Surface Type
  {06cc1b23-39ac-4c73-9a18-c008c0cf03e8}, !- Construction Name
  {e09cc32a-b805-403b-b990-32ac846d72cf}, !- Space Name
  Outdoors,                               !- Outside Boundary Condition
  ,                                       !- Outside Boundary Condition Object
  SunExposed,                             !- Sun Exposure
  WindExposed,                            !- Wind Exposure
  ,                                       !- View Factor to Ground
  ,                                       !- Number of Vertices
  5.64061751524953, -3.6576, 2.4384,      !- X,Y,Z Vertex 1 {m}
  5.64061751524953, -3.6576, 0,           !- X,Y,Z Vertex 2 {m}
  16.6134175152495, -3.6576, 0,           !- X,Y,Z Vertex 3 {m}
  16.6134175152495, -3.6576, 2.4384;      !- X,Y,Z Vertex 4 {m}

OS:Surface,
  {c3868894-97bb-49d5-97c1-1cec1c777ff4}, !- Handle
  Surface 6,                              !- Name
  RoofCeiling,                            !- Surface Type
  {cb98f143-57c5-45b6-b363-0f7fab285728}, !- Construction Name
  {e09cc32a-b805-403b-b990-32ac846d72cf}, !- Space Name
  Surface,                                !- Outside Boundary Condition
  {4abaa8b0-3aa1-4fcf-a71d-ea069985abc1}, !- Outside Boundary Condition Object
  NoSun,                                  !- Sun Exposure
  NoWind,                                 !- Wind Exposure
  ,                                       !- View Factor to Ground
  ,                                       !- Number of Vertices
  16.6134175152495, -3.6576, 2.4384,      !- X,Y,Z Vertex 1 {m}
  16.6134175152495, 3.6576, 2.4384,       !- X,Y,Z Vertex 2 {m}
  5.64061751524953, 3.6576, 2.4384,       !- X,Y,Z Vertex 3 {m}
  5.64061751524953, -3.6576, 2.4384;      !- X,Y,Z Vertex 4 {m}

OS:SpaceType,
  {eec430db-b1d2-42b8-a848-557dffccc457}, !- Handle
  Space Type 1,                           !- Name
  ,                                       !- Default Construction Set Name
  ,                                       !- Default Schedule Set Name
  {584bc2c2-91d7-4bff-b6c3-16d5e73c6e12}, !- Group Rendering Name
  ,                                       !- Design Specification Outdoor Air Object Name
  ,                                       !- Standards Template
  ,                                       !- Standards Building Type
  garage;                                 !- Standards Space Type

OS:Space,
  {2a6eaf09-9d76-4c05-a8d9-b8187e0893ff}, !- Handle
  living space,                           !- Name
  {e01d5ee5-2772-4157-a143-56753bc3cc71}, !- Space Type Name
  ,                                       !- Default Construction Set Name
  ,                                       !- Default Schedule Set Name
  -0,                                     !- Direction of Relative North {deg}
  0,                                      !- X Origin {m}
  0,                                      !- Y Origin {m}
  0,                                      !- Z Origin {m}
  ,                                       !- Building Story Name
  {149ef614-aed6-4f67-aa46-9d0f7dfd08a1}, !- Thermal Zone Name
  ,                                       !- Part of Total Floor Area
  ,                                       !- Design Specification Outdoor Air Object Name
  {cf543d50-b5e1-4b0b-b9d6-e9c9087cda57}; !- Building Unit Name

OS:Surface,
  {48534f8e-7ff5-4cbd-b0bb-a443e269e37f}, !- Handle
  Surface 7,                              !- Name
  Floor,                                  !- Surface Type
  {58304ce6-4d04-46b5-887f-2cb144341caf}, !- Construction Name
  {2a6eaf09-9d76-4c05-a8d9-b8187e0893ff}, !- Space Name
  Foundation,                             !- Outside Boundary Condition
  {8d947ba7-3dd5-4afb-b473-713d67140f8a}, !- Outside Boundary Condition Object
  NoSun,                                  !- Sun Exposure
  NoWind,                                 !- Wind Exposure
  ,                                       !- View Factor to Ground
  ,                                       !- Number of Vertices
  0, 0, 0,                                !- X,Y,Z Vertex 1 {m}
  0, 9.22967639736085, 0,                 !- X,Y,Z Vertex 2 {m}
  16.6134175152495, 9.22967639736085, 0,  !- X,Y,Z Vertex 3 {m}
  16.6134175152495, 3.6576, 0,            !- X,Y,Z Vertex 4 {m}
  5.64061751524953, 3.6576, 0,            !- X,Y,Z Vertex 5 {m}
  5.64061751524953, 0, 0;                 !- X,Y,Z Vertex 6 {m}

OS:Surface,
  {8d15cd66-bfcf-4d2b-a42c-d349cf87892d}, !- Handle
  Surface 8,                              !- Name