
OS:Version,
  {dcbffca7-bd21-4b82-812f-6e64acd2669d}, !- Handle
  3.3.0;                                  !- Version Identifier

OS:Building,
  {7818ec7b-de74-4008-9de2-f5b6157b0848}, !- Handle
  Building 1,                             !- Name
  ,                                       !- Building Sector Type
  270,                                    !- North Axis {deg}
  ,                                       !- Nominal Floor to Floor Height {m}
  ,                                       !- Space Type Name
  ,                                       !- Default Construction Set Name
  ,                                       !- Default Schedule Set Name
  2,                                      !- Standards Number of Stories
  2,                                      !- Standards Number of Above Ground Stories
  ,                                       !- Standards Template
  singlefamilydetached,                   !- Standards Building Type
  1;                                      !- Standards Number of Living Units

OS:Facility,
  {ad822955-7ec0-4836-af5d-b973d08db5b9}; !- Handle

OS:Site,
  {9e62ffb0-2a72-4df9-9504-94ee902e72c0}, !- Handle
  Denver-Aurora-Buckley AFB,              !- Name
  39.72,                                  !- Latitude {deg}
  -104.75,                                !- Longitude {deg}
  -7,                                     !- Time Zone {hr}
  1726,                                   !- Elevation {m}
  Suburbs;                                !- Terrain

OS:SimulationControl,
  {eadba25e-bfcc-4422-8deb-87a895cb03b7}, !- Handle
  ,                                       !- Do Zone Sizing Calculation
  ,                                       !- Do System Sizing Calculation
  ,                                       !- Do Plant Sizing Calculation
  No;                                     !- Run Simulation for Sizing Periods

OS:Sizing:Parameters,
  {6e0adff9-8471-4e8f-a060-4b003c06c9f5}, !- Handle
  1.25,                                   !- Heating Sizing Factor
  1.15;                                   !- Cooling Sizing Factor

OS:Timestep,
  {a268285c-7c53-4e6a-8810-56c1049237ce}, !- Handle
  4;                                      !- Number of Timesteps per Hour

OS:ShadowCalculation,
  {3c2595f3-da66-4b8a-9669-f4172720144c}, !- Handle
  PolygonClipping,                        !- Shading Calculation Method
  ,                                       !- Shading Calculation Update Frequency Method
  20,                                     !- Shading Calculation Update Frequency
  200,                                    !- Maximum Figures in Shadow Overlap Calculations
  ,                                       !- Polygon Clipping Algorithm
  512,                                    !- Pixel Counting Resolution
  DetailedSkyDiffuseModeling,             !- Sky Diffuse Modeling Algorithm
  No,                                     !- Output External Shading Calculation Results
  No,                                     !- Disable Self-Shading Within Shading Zone Groups
  No;                                     !- Disable Self-Shading From Shading Zone Groups to Other Zones

OS:HeatBalanceAlgorithm,
  {c513d371-ea98-47d2-90e8-45ac582db8cd}, !- Handle
  ConductionTransferFunction,             !- Algorithm
  200;                                    !- Surface Temperature Upper Limit {C}

OS:RunPeriod,
  {ba0463a4-091b-44ef-adb4-d70c06baa156}, !- Handle
  Run Period 1,                           !- Name
  1,                                      !- Begin Month
  1,                                      !- Begin Day of Month
  12,                                     !- End Month
  31,                                     !- End Day of Month
  ,                                       !- Use Weather File Holidays and Special Days
  ,                                       !- Use Weather File Daylight Saving Period
  ,                                       !- Apply Weekend Holiday Rule
  ,                                       !- Use Weather File Rain Indicators
  ,                                       !- Use Weather File Snow Indicators
  ;                                       !- Number of Times Runperiod to be Repeated

OS:LifeCycleCost:Parameters,
  {6ad8c3b1-f863-4de2-8c19-4ebd114c462b}, !- Handle
  ,                                       !- Analysis Type
  ,                                       !- Discounting Convention
  ,                                       !- Inflation Approach
  ,                                       !- Real Discount Rate
  ,                                       !- Nominal Discount Rate
  ,                                       !- Inflation
  ,                                       !- Base Date Month
  ,                                       !- Base Date Year
  ,                                       !- Service Date Month
  ,                                       !- Service Date Year
  ;                                       !- Length of Study Period in Years

OS:SurfaceConvectionAlgorithm:Outside,
  {3e95ded2-63cb-41c8-8d67-072b445df02e}, !- Handle
  DOE-2;                                  !- Algorithm

OS:SurfaceConvectionAlgorithm:Inside,
  {8056c231-cd3c-4f4c-b250-00ee2f5a6b9c}, !- Handle
  TARP;                                   !- Algorithm

OS:ZoneCapacitanceMultiplier:ResearchSpecial,
  {aeffe75b-28be-455e-9e65-7f64e820281c}, !- Handle
  ,                                       !- Temperature Capacity Multiplier
  15,                                     !- Humidity Capacity Multiplier
  ;                                       !- Carbon Dioxide Capacity Multiplier

OS:YearDescription,
  {67cd4676-61fc-4102-8548-b05c2cd255ab}, !- Handle
  ,                                       !- Calendar Year
  Sunday,                                 !- Day of Week for Start Day
  ;                                       !- Is Leap Year

OS:AdditionalProperties,
  {80ab2de5-0b12-4c87-84ff-1707625f59ac}, !- Handle
  {7818ec7b-de74-4008-9de2-f5b6157b0848}, !- Object Name
  Building ID,                            !- Feature Name 1
  Integer,                                !- Feature Data Type 1
  2578,                                   !- Feature Value 1
  num_occupants,                          !- Feature Name 2
  Integer,                                !- Feature Data Type 2
  1,                                      !- Feature Value 2
  Schedules Path,                         !- Feature Name 3
  String,                                 !- Feature Data Type 3
  /var/simdata/openstudio/run/schedules.csv, !- Feature Value 3
  Total Units Modeled,                    !- Feature Name 4
  Integer,                                !- Feature Data Type 4
  1,                                      !- Feature Value 4
  has_water_heater_flue,                  !- Feature Name 5
  Boolean,                                !- Feature Data Type 5
  true,                                   !- Feature Value 5
  has_hvac_flue,                          !- Feature Name 6
  Boolean,                                !- Feature Data Type 6
  true,                                   !- Feature Value 6
  has_fireplace_chimney,                  !- Feature Name 7
  Boolean,                                !- Feature Data Type 7
  false;                                  !- Feature Value 7

OS:ClimateZones,
  {6751e427-0824-446e-af99-2548d148fde4}, !- Handle
  Building America,                       !- Climate Zone Institution Name 1
  ,                                       !- Climate Zone Document Name 1
  0,                                      !- Climate Zone Document Year 1
  Cold,                                   !- Climate Zone Value 1
  ASHRAE,                                 !- Climate Zone Institution Name 2
  ANSI/ASHRAE Standard 169,               !- Climate Zone Document Name 2
  2006,                                   !- Climate Zone Document Year 2
  ,                                       !- Climate Zone Value 2
  CEC,                                    !- Climate Zone Institution Name 3
  California Climate Zone Descriptions,   !- Climate Zone Document Name 3
  1995,                                   !- Climate Zone Document Year 3
  ;                                       !- Climate Zone Value 3

OS:Site:WaterMainsTemperature,
  {04293371-25c5-4920-b2c6-80d7bc408a8c}, !- Handle
  Correlation,                            !- Calculation Method
  ,                                       !- Temperature Schedule Name
  11.865890410959,                        !- Annual Average Outdoor Air Temperature {C}
  26.7836021505376;                       !- Maximum Difference In Monthly Average Outdoor Air Temperatures {deltaC}

OS:RunPeriodControl:DaylightSavingTime,
  {4a032cad-d3f0-4178-9503-77ab27ec317d}, !- Handle
  3/10,                                   !- Start Date
  11/3;                                   !- End Date

OS:Site:GroundTemperature:Deep,
  {df329a24-89e3-48a4-a83d-330055b0bca9}, !- Handle
  11.865890410959,                        !- January Deep Ground Temperature {C}
  11.865890410959,                        !- February Deep Ground Temperature {C}
  11.865890410959,                        !- March Deep Ground Temperature {C}
  11.865890410959,                        !- April Deep Ground Temperature {C}
  11.865890410959,                        !- May Deep Ground Temperature {C}
  11.865890410959,                        !- June Deep Ground Temperature {C}
  11.865890410959,                        !- July Deep Ground Temperature {C}
  11.865890410959,                        !- August Deep Ground Temperature {C}
  11.865890410959,                        !- September Deep Ground Temperature {C}
  11.865890410959,                        !- October Deep Ground Temperature {C}
  11.865890410959,                        !- November Deep Ground Temperature {C}
  11.865890410959;                        !- December Deep Ground Temperature {C}

OS:ThermalZone,
  {36296076-3964-4c89-8482-588bafa3ecd2}, !- Handle
  living zone,                            !- Name
  ,                                       !- Multiplier
  ,                                       !- Ceiling Height {m}
  ,                                       !- Volume {m3}
  ,                                       !- Floor Area {m2}
  ,                                       !- Zone Inside Convection Algorithm
  ,                                       !- Zone Outside Convection Algorithm
  ,                                       !- Zone Conditioning Equipment List Name
  {55f7aa6c-b7ea-4a97-b99c-6aaf3f8dca9e}, !- Zone Air Inlet Port List
  {b15e12b3-24cc-4d56-af08-470a95f1ea0d}, !- Zone Air Exhaust Port List
  {8d40603a-e8eb-4385-af2b-7791ffd8f37e}, !- Zone Air Node Name
  {d6102ef6-5088-4de9-8274-dcabc27cfdf8}, !- Zone Return Air Port List
  ,                                       !- Primary Daylighting Control Name
  ,                                       !- Fraction of Zone Controlled by Primary Daylighting Control
  ,                                       !- Secondary Daylighting Control Name
  ,                                       !- Fraction of Zone Controlled by Secondary Daylighting Control
  ,                                       !- Illuminance Map Name
  ,                                       !- Group Rendering Name
  {1dcb46bc-9cdd-493f-ac70-40e1ff723567}, !- Thermostat Name
  No;                                     !- Use Ideal Air Loads

OS:Node,
  {50bb1d21-00c1-4c05-b40c-25e290a429c4}, !- Handle
  Node 1,                                 !- Name
  {8d40603a-e8eb-4385-af2b-7791ffd8f37e}, !- Inlet Port
  ;                                       !- Outlet Port

OS:Connection,
  {8d40603a-e8eb-4385-af2b-7791ffd8f37e}, !- Handle
  {36296076-3964-4c89-8482-588bafa3ecd2}, !- Source Object
  11,                                     !- Outlet Port
  {50bb1d21-00c1-4c05-b40c-25e290a429c4}, !- Target Object
  2;                                      !- Inlet Port

OS:PortList,
  {55f7aa6c-b7ea-4a97-b99c-6aaf3f8dca9e}, !- Handle
  {36296076-3964-4c89-8482-588bafa3ecd2}; !- HVAC Component

OS:PortList,
  {b15e12b3-24cc-4d56-af08-470a95f1ea0d}, !- Handle
  {36296076-3964-4c89-8482-588bafa3ecd2}; !- HVAC Component

OS:PortList,
  {d6102ef6-5088-4de9-8274-dcabc27cfdf8}, !- Handle
  {36296076-3964-4c89-8482-588bafa3ecd2}; !- HVAC Component

OS:Sizing:Zone,
  {11289c7b-b307-4b10-a754-d62eab14c086}, !- Handle
  {36296076-3964-4c89-8482-588bafa3ecd2}, !- Zone or ZoneList Name
  SupplyAirTemperature,                   !- Zone Cooling Design Supply Air Temperature Input Method
  14,                                     !- Zone Cooling Design Supply Air Temperature {C}
  11.11,                                  !- Zone Cooling Design Supply Air Temperature Difference {deltaC}
  SupplyAirTemperature,                   !- Zone Heating Design Supply Air Temperature Input Method
  40,                                     !- Zone Heating Design Supply Air Temperature {C}
  11.11,                                  !- Zone Heating Design Supply Air Temperature Difference {deltaC}
  0.0085,                                 !- Zone Cooling Design Supply Air Humidity Ratio {kg-H2O/kg-air}
  0.008,                                  !- Zone Heating Design Supply Air Humidity Ratio {kg-H2O/kg-air}
  ,                                       !- Zone Heating Sizing Factor
  ,                                       !- Zone Cooling Sizing Factor
  DesignDay,                              !- Cooling Design Air Flow Method
  ,                                       !- Cooling Design Air Flow Rate {m3/s}
  ,                                       !- Cooling Minimum Air Flow per Zone Floor Area {m3/s-m2}
  ,                                       !- Cooling Minimum Air Flow {m3/s}
  ,                                       !- Cooling Minimum Air Flow Fraction
  DesignDay,                              !- Heating Design Air Flow Method
  ,                                       !- Heating Design Air Flow Rate {m3/s}
  ,                                       !- Heating Maximum Air Flow per Zone Floor Area {m3/s-m2}
  ,                                       !- Heating Maximum Air Flow {m3/s}
  ,                                       !- Heating Maximum Air Flow Fraction
  No,                                     !- Account for Dedicated Outdoor Air System
  NeutralSupplyAir,                       !- Dedicated Outdoor Air System Control Strategy
  autosize,                               !- Dedicated Outdoor Air Low Setpoint Temperature for Design {C}
  autosize;                               !- Dedicated Outdoor Air High Setpoint Temperature for Design {C}

OS:ZoneHVAC:EquipmentList,
  {9336a858-2b50-4f2a-98d1-d34663a5a58c}, !- Handle
  Zone HVAC Equipment List 1,             !- Name
  {36296076-3964-4c89-8482-588bafa3ecd2}, !- Thermal Zone
  SequentialLoad,                         !- Load Distribution Scheme
  {d0738241-1c9a-4ee6-8460-47e69d26a9f5}, !- Zone Equipment 1
  1,                                      !- Zone Equipment Cooling Sequence 1
  1,                                      !- Zone Equipment Heating or No-Load Sequence 1
  ,                                       !- Zone Equipment Sequential Cooling Fraction Schedule Name 1
  ;                                       !- Zone Equipment Sequential Heating Fraction Schedule Name 1

OS:ThermalZone,
  {b44ad29a-978e-4bde-a068-e02690bbc9d7}, !- Handle
  garage zone,                            !- Name
  ,                                       !- Multiplier
  ,                                       !- Ceiling Height {m}
  ,                                       !- Volume {m3}
  ,                                       !- Floor Area {m2}
  ,                                       !- Zone Inside Convection Algorithm
  ,                                       !- Zone Outside Convection Algorithm
  ,                                       !- Zone Conditioning Equipment List Name
  {19734ee7-38d4-4b67-ac9f-5125754746f8}, !- Zone Air Inlet Port List
  {f9fe1d7d-eddb-456e-af19-aa0d921057e9}, !- Zone Air Exhaust Port List
  {a9588b07-ccb9-4b26-9511-b4f1dcb050e4}, !- Zone Air Node Name
  {baf4bfc0-6d47-42ae-aa9f-1dc752976156}, !- Zone Return Air Port List
  ,                                       !- Primary Daylighting Control Name
  ,                                       !- Fraction of Zone Controlled by Primary Daylighting Control
  ,                                       !- Secondary Daylighting Control Name
  ,                                       !- Fraction of Zone Controlled by Secondary Daylighting Control
  ,                                       !- Illuminance Map Name
  ,                                       !- Group Rendering Name
  ,                                       !- Thermostat Name
  No;                                     !- Use Ideal Air Loads

OS:Node,
  {bb701cbc-2b51-45cd-8302-aaa6a623844c}, !- Handle
  Node 2,                                 !- Name
  {a9588b07-ccb9-4b26-9511-b4f1dcb050e4}, !- Inlet Port
  ;                                       !- Outlet Port

OS:Connection,
  {a9588b07-ccb9-4b26-9511-b4f1dcb050e4}, !- Handle
  {b44ad29a-978e-4bde-a068-e02690bbc9d7}, !- Source Object
  11,                                     !- Outlet Port
  {bb701cbc-2b51-45cd-8302-aaa6a623844c}, !- Target Object
  2;                                      !- Inlet Port

OS:PortList,
  {19734ee7-38d4-4b67-ac9f-5125754746f8}, !- Handle
  {b44ad29a-978e-4bde-a068-e02690bbc9d7}; !- HVAC Component

OS:PortList,
  {f9fe1d7d-eddb-456e-af19-aa0d921057e9}, !- Handle
  {b44ad29a-978e-4bde-a068-e02690bbc9d7}; !- HVAC Component

OS:PortList,
  {baf4bfc0-6d47-42ae-aa9f-1dc752976156}, !- Handle
  {b44ad29a-978e-4bde-a068-e02690bbc9d7}; !- HVAC Component

OS:Sizing:Zone,
  {deeeba08-1375-4b17-a699-e337a820340a}, !- Handle
  {b44ad29a-978e-4bde-a068-e02690bbc9d7}, !- Zone or ZoneList Name
  SupplyAirTemperature,                   !- Zone Cooling Design Supply Air Temperature Input Method
  14,                                     !- Zone Cooling Design Supply Air Temperature {C}
  11.11,                                  !- Zone Cooling Design Supply Air Temperature Difference {deltaC}
  SupplyAirTemperature,                   !- Zone Heating Design Supply Air Temperature Input Method
  40,                                     !- Zone Heating Design Supply Air Temperature {C}
  11.11,                                  !- Zone Heating Design Supply Air Temperature Difference {deltaC}
  0.0085,                                 !- Zone Cooling Design Supply Air Humidity Ratio {kg-H2O/kg-air}
  0.008,                                  !- Zone Heating Design Supply Air Humidity Ratio {kg-H2O/kg-air}
  ,                                       !- Zone Heating Sizing Factor
  ,                                       !- Zone Cooling Sizing Factor
  DesignDay,                              !- Cooling Design Air Flow Method
  ,                                       !- Cooling Design Air Flow Rate {m3/s}
  ,                                       !- Cooling Minimum Air Flow per Zone Floor Area {m3/s-m2}
  ,                                       !- Cooling Minimum Air Flow {m3/s}
  ,                                       !- Cooling Minimum Air Flow Fraction
  DesignDay,                              !- Heating Design Air Flow Method
  ,                                       !- Heating Design Air Flow Rate {m3/s}
  ,                                       !- Heating Maximum Air Flow per Zone Floor Area {m3/s-m2}
  ,                                       !- Heating Maximum Air Flow {m3/s}
  ,                                       !- Heating Maximum Air Flow Fraction
  No,                                     !- Account for Dedicated Outdoor Air System
  NeutralSupplyAir,                       !- Dedicated Outdoor Air System Control Strategy
  autosize,                               !- Dedicated Outdoor Air Low Setpoint Temperature for Design {C}
  autosize;                               !- Dedicated Outdoor Air High Setpoint Temperature for Design {C}

OS:ZoneHVAC:EquipmentList,
  {260bb72c-d23a-4b29-877f-b08de153a8b1}, !- Handle
  Zone HVAC Equipment List 2,             !- Name
  {b44ad29a-978e-4bde-a068-e02690bbc9d7}; !- Thermal Zone

OS:Space,
  {6216786b-bcb0-4c5d-92ec-b408eb621688}, !- Handle
  garage space,                           !- Name
  {8b4d9eba-7c10-4838-b8b5-6d4eae582ec6}, !- Space Type Name
  ,                                       !- Default Construction Set Name
  ,                                       !- Default Schedule Set Name
  -0,                                     !- Direction of Relative North {deg}
  0,                                      !- X Origin {m}
  0,                                      !- Y Origin {m}
  0,                                      !- Z Origin {m}
  ,                                       !- Building Story Name
  {b44ad29a-978e-4bde-a068-e02690bbc9d7}; !- Thermal Zone Name

OS:Surface,
  {227d066b-7b81-425b-80aa-c4a2a23fd639}, !- Handle
  Surface 1,                              !- Name
  Floor,                                  !- Surface Type
  {8b586feb-7c36-4c7a-8233-1648b5b083a4}, !- Construction Name
  {6216786b-bcb0-4c5d-92ec-b408eb621688}, !- Space Name
  Foundation,                             !- Outside Boundary Condition
  {b2c1a2b2-325f-4d6c-b3ca-901a92730e44}, !- Outside Boundary Condition Object
  NoSun,                                  !- Sun Exposure
  NoWind,                                 !- Wind Exposure
  ,                                       !- View Factor to Ground
  ,                                       !- Number of Vertices
  12.9558175152495, -3.6576, 0,           !- X,Y,Z Vertex 1 {m}
  12.9558175152495, 3.6576, 0,            !- X,Y,Z Vertex 2 {m}
  16.6134175152495, 3.6576, 0,            !- X,Y,Z Vertex 3 {m}
  16.6134175152495, -3.6576, 0;           !- X,Y,Z Vertex 4 {m}

OS:Surface,
  {9a4606b9-36da-4a9e-9c08-a1111673511e}, !- Handle
  Surface 2,                              !- Name
  Wall,                                   !- Surface Type
  {cb8e77c0-214d-4d67-8af8-04474af22035}, !- Construction Name
  {6216786b-bcb0-4c5d-92ec-b408eb621688}, !- Space Name
  Surface,                                !- Outside Boundary Condition
  {7509079d-3c39-4d8d-819e-b3abe70793b5}, !- Outside Boundary Condition Object
  NoSun,                                  !- Sun Exposure
  NoWind,                                 !- Wind Exposure
  ,                                       !- View Factor to Ground
  ,                                       !- Number of Vertices
  12.9558175152495, 3.6576, 2.4384,       !- X,Y,Z Vertex 1 {m}
  12.9558175152495, 3.6576, 0,            !- X,Y,Z Vertex 2 {m}
  12.9558175152495, 0, 0,                 !- X,Y,Z Vertex 3 {m}
  12.9558175152495, 0, 2.4384;            !- X,Y,Z Vertex 4 {m}

OS:Surface,
  {5575e331-8c40-4e59-b696-a6515ee4514f}, !- Handle
  Surface 3,                              !- Name
  Wall,                                   !- Surface Type
  {cb8e77c0-214d-4d67-8af8-04474af22035}, !- Construction Name
  {6216786b-bcb0-4c5d-92ec-b408eb621688}, !- Space Name
  Surface,                                !- Outside Boundary Condition
  {091147a5-29d0-4dab-bbfa-8359842fa13b}, !- Outside Boundary Condition Object
  NoSun,                                  !- Sun Exposure
  NoWind,                                 !- Wind Exposure
  ,                                       !- View Factor to Ground
  ,                                       !- Number of Vertices
  16.6134175152495, 3.6576, 2.4384,       !- X,Y,Z Vertex 1 {m}
  16.6134175152495, 3.6576, 0,            !- X,Y,Z Vertex 2 {m}
  12.9558175152495, 3.6576, 0,            !- X,Y,Z Vertex 3 {m}
  12.9558175152495, 3.6576, 2.4384;       !- X,Y,Z Vertex 4 {m}

OS:Surface,
  {c21f610b-dab3-4fe2-a35a-af841748fdda}, !- Handle
  Surface 4,                              !- Name
  Wall,                                   !- Surface Type
  {9964f72c-a4fc-4b89-a198-91e79121ce31}, !- Construction Name
  {6216786b-bcb0-4c5d-92ec-b408eb621688}, !- Space Name
  Outdoors,                               !- Outside Boundary Condition
  ,                                       !- Outside Boundary Condition Object
  SunExposed,                             !- Sun Exposure
  WindExposed,                            !- Wind Exposure
  ,                                       !- View Factor to Ground
  ,                                       !- Number of Vertices
  16.6134175152495, -3.6576, 2.4384,      !- X,Y,Z Vertex 1 {m}
  16.6134175152495, -3.6576, 0,           !- X,Y,Z Vertex 2 {m}
  16.6134175152495, 3.6576, 0,            !- X,Y,Z Vertex 3 {m}
  16.6134175152495, 3.6576, 2.4384;       !- X,Y,Z Vertex 4 {m}

OS:Surface,
  {fdd2d59f-d477-4dc1-b1f5-ab0c669f12b4}, !- Handle
  Surface 5,                              !- Name
  Wall,                                   !- Surface Type
  {9964f72c-a4fc-4b89-a198-91e79121ce31}, !- Construction Name
  {6216786b-bcb0-4c5d-92ec-b408eb621688}, !- Space Name
  Outdoors,                               !- Outside Boundary Condition
  ,                                       !- Outside Boundary Condition Object
  SunExposed,                             !- Sun Exposure
  WindExposed,                            !- Wind Exposure
  ,                                       !- View Factor to Ground
  ,                                       !- Number of Vertices
  12.9558175152495, -3.6576, 2.4384,      !- X,Y,Z Vertex 1 {m}
  12.9558175152495, -3.6576, 0,           !- X,Y,Z Vertex 2 {m}
  16.6134175152495, -3.6576, 0,           !- X,Y,Z Vertex 3 {m}
  16.6134175152495, -3.6576, 2.4384;      !- X,Y,Z Vertex 4 {m}

OS:Surface,
  {48368dba-873b-4f82-a449-3375804ab4be}, !- Handle
  Surface 6,                              !- Name
  RoofCeiling,                            !- Surface Type
  {1d5acaba-47b6-47b4-958c-e20a6af94723}, !- Construction Name
  {6216786b-bcb0-4c5d-92ec-b408eb621688}, !- Space Name
  Surface,                                !- Outside Boundary Condition
  {9942c2ba-e16d-4293-afed-a40a6da70821}, !- Outside Boundary Condition Object
  NoSun,                                  !- Sun Exposure
  NoWind,                                 !- Wind Exposure
  ,                                       !- View Factor to Ground
  ,                                       !- Number of Vertices
  16.6134175152495, -3.6576, 2.4384,      !- X,Y,Z Vertex 1 {m}
  16.6134175152495, 3.6576, 2.4384,       !- X,Y,Z Vertex 2 {m}
  12.9558175152495, 3.6576, 2.4384,       !- X,Y,Z Vertex 3 {m}
  12.9558175152495, -3.6576, 2.4384;      !- X,Y,Z Vertex 4 {m}

OS:SpaceType,
  {8b4d9eba-7c10-4838-b8b5-6d4eae582ec6}, !- Handle
  Space Type 1,                           !- Name
  ,                                       !- Default Construction Set Name
  ,                                       !- Default Schedule Set Name
  ,                                       !- Group Rendering Name
  ,                                       !- Design Specification Outdoor Air Object Name
  ,                                       !- Standards Template
  ,                                       !- Standards Building Type
  garage;                                 !- Standards Space Type

OS:Space,
  {b6538e53-9445-440f-81a9-a52bb86d0618}, !- Handle
  living space,                           !- Name
  {1586c636-2548-4c5b-aa71-714adc89aba7}, !- Space Type Name
  ,                                       !- Default Construction Set Name
  ,                                       !- Default Schedule Set Name
  -0,                                     !- Direction of Relative North {deg}
  0,                                      !- X Origin {m}
  0,                                      !- Y Origin {m}
  0,                                      !- Z Origin {m}
  ,                                       !- Building Story Name
  {36296076-3964-4c89-8482-588bafa3ecd2}, !- Thermal Zone Name
  ,                                       !- Part of Total Floor Area
  ,                                       !- Design Specification Outdoor Air Object Name
  {387e6b8a-0b29-4d44-bc7e-1d23917739f8}; !- Building Unit Name

OS:Surface,
  {0ddd5127-a285-4709-a5c2-fca4a654fbb9}, !- Handle
  Surface 7,                              !- Name
  Floor,                                  !- Surface Type
  {201b555e-b4c1-4af3-be6c-451d7684501c}, !- Construction Name
  {b6538e53-9445-440f-81a9-a52bb86d0618}, !- Space Name
  Foundation,                             !- Outside Boundary Condition
  {98cec49f-5c97-436b-bc26-79a1654c64f1}, !- Outside Boundary Condition Object
  NoSun,                                  !- Sun Exposure
  NoWind,                                 !- Wind Exposure
  ,                                       !- View Factor to Ground
  ,                                       !- Number of Vertices
  0, 0, 0,                                !- X,Y,Z Vertex 1 {m}
  0, 9.22967639736085, 0,                 !- X,Y,Z Vertex 2 {m}
  16.6134175152495, 9.22967639736085, 0,  !- X,Y,Z Vertex 3 {m}
  16.6134175152495, 3.6576, 0,            !- X,Y,Z Vertex 4 {m}
  12.9558175152495, 3.6576, 0,            !- X,Y,Z Vertex 5 {m}
  12.9558175152495, 0, 0;                 !- X,Y,Z Vertex 6 {m}

OS:Surface,
  {e07ef509-9abe-4712-b020-d404ae5a4714}, !- Handle
  Surface 8,                              !- Name
  Wall,                                   !- Surface Type
  {0bf45bf3-8266-4efe-93bf-1d3e88ba664c}, !- Construction Name
  {b6538e53-9445-440f-81a9-a52bb86d0618}, !- Space Name
  Outdoors,                               !- Outside Boundary Condition
  ,                                       !- Outside Boundary Condition Object
  SunExposed,                             !- Sun Exposure
  WindExposed,                            !- Wind Exposure
  ,                                       !- View Factor to Ground
  ,                                       !- Number of Vertices
  0, 9.22967639736085, 2.4384,            !- X,Y,Z Vertex 1 {m}