
OS:Version,
  {e9d43327-c91f-431b-8aa3-1e548b89c755}, !- Handle
  3.3.0;                                  !- Version Identifier

OS:Building,
  {e3788cf5-4c68-4de3-a29d-330de28a548b}, !- Handle
  Building 1,                             !- Name
  ,                                       !- Building Sector Type
  180,                                    !- North Axis {deg}
  ,                                       !- Nominal Floor to Floor Height {m}
  ,                                       !- Space Type Name
  ,                                       !- Default Construction Set Name
  ,                                       !- Default Schedule Set Name
  2,                                      !- Standards Number of Stories
  2,                                      !- Standards Number of Above Ground Stories
  ,                                       !- Standards Template
  singlefamilydetached,                   !- Standards Building Type
  1;                                      !- Standards Number of Living Units

OS:Facility,
  {4c92e736-b133-4d93-8f11-70a723e6bf64}; !- Handle

OS:Site,
  {80d00a4b-94b1-4600-aed3-c3522c54c7ce}, !- Handle
  Denver-Aurora-Buckley AFB,              !- Name
  39.72,                                  !- Latitude {deg}
  -104.75,                                !- Longitude {deg}
  -7,                                     !- Time Zone {hr}
  1726,                                   !- Elevation {m}
  Suburbs;                                !- Terrain

OS:SimulationControl,
  {16bf6809-5674-4b6a-b7d8-16e5d482a992}, !- Handle
  ,                                       !- Do Zone Sizing Calculation
  ,                                       !- Do System Sizing Calculation
  ,                                       !- Do Plant Sizing Calculation
  No;                                     !- Run Simulation for Sizing Periods

OS:Sizing:Parameters,
  {cdf0fa4b-f6e2-4fae-93e2-70ccd7c185ba}, !- Handle
  1.25,                                   !- Heating Sizing Factor
  1.15;                                   !- Cooling Sizing Factor

OS:Timestep,
  {f6310300-ebc5-4f8b-a884-f281a7d0a26e}, !- Handle
  4;                                      !- Number of Timesteps per Hour

OS:ShadowCalculation,
  {f6d89ff6-9a11-4c95-a644-ca5a2e42658b}, !- Handle
  PolygonClipping,                        !- Shading Calculation Method
  ,                                       !- Shading Calculation Update Frequency Method
  20,                                     !- Shading Calculation Update Frequency
  200,                                    !- Maximum Figures in Shadow Overlap Calculations
  ,                                       !- Polygon Clipping Algorithm
  512,                                    !- Pixel Counting Resolution
  DetailedSkyDiffuseModeling,             !- Sky Diffuse Modeling Algorithm
  No,                                     !- Output External Shading Calculation Results
  No,                                     !- Disable Self-Shading Within Shading Zone Groups
  No;                                     !- Disable Self-Shading From Shading Zone Groups to Other Zones

OS:HeatBalanceAlgorithm,
  {1826cc10-3eba-4316-b2d8-093592859111}, !- Handle
  ConductionTransferFunction,             !- Algorithm
  200;                                    !- Surface Temperature Upper Limit {C}

OS:RunPeriod,
  {725106e1-511b-4edb-bc88-54bb4ea84630}, !- Handle
  Run Period 1,                           !- Name
  1,                                      !- Begin Month
  1,                                      !- Begin Day of Month
  12,                                     !- End Month
  31,                                     !- End Day of Month
  ,                                       !- Use Weather File Holidays and Special Days
  ,                                       !- Use Weather File Daylight Saving Period
  ,                                       !- Apply Weekend Holiday Rule
  ,                                       !- Use Weather File Rain Indicators
  ,                                       !- Use Weather File Snow Indicators
  ;                                       !- Number of Times Runperiod to be Repeated

OS:LifeCycleCost:Parameters,
  {0e3daf3b-f969-4b2f-a839-580eecac16df}, !- Handle
  ,                                       !- Analysis Type
  ,                                       !- Discounting Convention
  ,                                       !- Inflation Approach
  ,                                       !- Real Discount Rate
  ,                                       !- Nominal Discount Rate
  ,                                       !- Inflation
  ,                                       !- Base Date Month
  ,                                       !- Base Date Year
  ,                                       !- Service Date Month
  ,                                       !- Service Date Year
  ;                                       !- Length of Study Period in Years

OS:SurfaceConvectionAlgorithm:Outside,
  {254dd09e-f9f9-46ef-b57e-a975bc730655}, !- Handle
  DOE-2;                                  !- Algorithm

OS:SurfaceConvectionAlgorithm:Inside,
  {0994fd2d-32e7-46fa-adbf-e0ad929ed425}, !- Handle
  TARP;                                   !- Algorithm

OS:ZoneCapacitanceMultiplier:ResearchSpecial,
  {871637fd-7666-4d0f-b1c4-4db3428f86ac}, !- Handle
  ,                                       !- Temperature Capacity Multiplier
  15,                                     !- Humidity Capacity Multiplier
  ;                                       !- Carbon Dioxide Capacity Multiplier

OS:YearDescription,
  {79717107-6e84-4bbf-a36f-985fffc52693}, !- Handle
  ,                                       !- Calendar Year
  Sunday,                                 !- Day of Week for Start Day
  ;                                       !- Is Leap Year

OS:AdditionalProperties,
  {db091083-78ec-4944-a798-51386472ca2a}, !- Handle
  {e3788cf5-4c68-4de3-a29d-330de28a548b}, !- Object Name
  Building ID,                            !- Feature Name 1
  Integer,                                !- Feature Data Type 1
  14231,                                  !- Feature Value 1
  num_occupants,                          !- Feature Name 2
  Integer,                                !- Feature Data Type 2
  1,                                      !- Feature Value 2
  Schedules Path,                         !- Feature Name 3
  String,                                 !- Feature Data Type 3
  /var/simdata/openstudio/run/schedules.csv, !- Feature Value 3
  Total Units Modeled,                    !- Feature Name 4
  Integer,                                !- Feature Data Type 4
  1,                                      !- Feature Value 4
  has_water_heater_flue,                  !- Feature Name 5
  Boolean,                                !- Feature Data Type 5
  true,                                   !- Feature Value 5
  has_hvac_flue,                          !- Feature Name 6
  Boolean,                                !- Feature Data Type 6
  false,                                  !- Feature Value 6
  has_fireplace_chimney,                  !- Feature Name 7
  Boolean,                                !- Feature Data Type 7
  false;                                  !- Feature Value 7

OS:ClimateZones,
  {aa72d509-e6ee-4642-b372-603586a1734f}, !- Handle
  Building America,                       !- Climate Zone Institution Name 1
  ,                                       !- Climate Zone Document Name 1
  0,                                      !- Climate Zone Document Year 1
  Marine,                                 !- Climate Zone Value 1
  ASHRAE,                                 !- Climate Zone Institution Name 2
  ANSI/ASHRAE Standard 169,               !- Climate Zone Document Name 2
  2006,                                   !- Climate Zone Document Year 2
  ,                                       !- Climate Zone Value 2
  CEC,                                    !- Climate Zone Institution Name 3
  California Climate Zone Descriptions,   !- Climate Zone Document Name 3
  1995,                                   !- Climate Zone Document Year 3
  ;                                       !- Climate Zone Value 3

OS:Site:WaterMainsTemperature,
  {3f1e1c27-e89e-4193-ab2c-2f3657d14030}, !- Handle
  Correlation,                            !- Calculation Method
  ,                                       !- Temperature Schedule Name
  11.8371461187215,                       !- Annual Average Outdoor Air Temperature {C}
  13.5266129032258;                       !- Maximum Difference In Monthly Average Outdoor Air Temperatures {deltaC}

OS:RunPeriodControl:DaylightSavingTime,
  {18ba936b-d9bb-4b93-963d-6342c4b36b51}, !- Handle
  3/10,                                   !- Start Date
  11/3;                                   !- End Date

OS:Site:GroundTemperature:Deep,
  {513239b6-fb8a-431c-a016-94c489dab217}, !- Handle
  11.8371461187215,                       !- January Deep Ground Temperature {C}
  11.8371461187215,                       !- February Deep Ground Temperature {C}
  11.8371461187215,                       !- March Deep Ground Temperature {C}
  11.8371461187215,                       !- April Deep Ground Temperature {C}
  11.8371461187215,                       !- May Deep Ground Temperature {C}
  11.8371461187215,                       !- June Deep Ground Temperature {C}
  11.8371461187215,                       !- July Deep Ground Temperature {C}
  11.8371461187215,                       !- August Deep Ground Temperature {C}
  11.8371461187215,                       !- September Deep Ground Temperature {C}
  11.8371461187215,                       !- October Deep Ground Temperature {C}
  11.8371461187215,                       !- November Deep Ground Temperature {C}
  11.8371461187215;                       !- December Deep Ground Temperature {C}

OS:ThermalZone,
  {8764ea45-7553-4c7e-b5b5-ed32b3293f31}, !- Handle
  living zone,                            !- Name
  ,                                       !- Multiplier
  ,                                       !- Ceiling Height {m}
  ,                                       !- Volume {m3}
  ,                                       !- Floor Area {m2}
  ,                                       !- Zone Inside Convection Algorithm
  ,                                       !- Zone Outside Convection Algorithm
  ,                                       !- Zone Conditioning Equipment List Name
  {78d4b121-57ee-4fdb-a468-bef3d77d7dbe}, !- Zone Air Inlet Port List
  {ddff37de-6210-4936-a82a-e675c15cc2d4}, !- Zone Air Exhaust Port List
  {974b099d-d735-48bb-a26a-9a88bf44f88a}, !- Zone Air Node Name
  {e712716e-e9d9-4b21-be91-9e551cdbe7f8}, !- Zone Return Air Port List
  ,                                       !- Primary Daylighting Control Name
  ,                                       !- Fraction of Zone Controlled by Primary Daylighting Control
  ,                                       !- Secondary Daylighting Control Name
  ,                                       !- Fraction of Zone Controlled by Secondary Daylighting Control
  ,                                       !- Illuminance Map Name
  {479aa593-5f26-497e-a1b0-c76824c046e7}, !- Group Rendering Name
  {d186c6ed-91ee-477b-9495-e429d81b904d}, !- Thermostat Name
  No;                                     !- Use Ideal Air Loads

OS:Node,
  {0a1eef21-f5cd-4ebb-af49-bdcaa00e9c6a}, !- Handle
  Node 1,                                 !- Name
  {974b099d-d735-48bb-a26a-9a88bf44f88a}, !- Inlet Port
  ;                                       !- Outlet Port

OS:Connection,
  {974b099d-d735-48bb-a26a-9a88bf44f88a}, !- Handle
  {8764ea45-7553-4c7e-b5b5-ed32b3293f31}, !- Source Object
  11,                                     !- Outlet Port
  {0a1eef21-f5cd-4ebb-af49-bdcaa00e9c6a}, !- Target Object
  2;                                      !- Inlet Port

OS:PortList,
  {78d4b121-57ee-4fdb-a468-bef3d77d7dbe}, !- Handle
  {8764ea45-7553-4c7e-b5b5-ed32b3293f31}; !- HVAC Component

OS:PortList,
  {ddff37de-6210-4936-a82a-e675c15cc2d4}, !- Handle
  {8764ea45-7553-4c7e-b5b5-ed32b3293f31}; !- HVAC Component

OS:PortList,
  {e712716e-e9d9-4b21-be91-9e551cdbe7f8}, !- Handle
  {8764ea45-7553-4c7e-b5b5-ed32b3293f31}; !- HVAC Component

OS:Sizing:Zone,
  {80a6f1e1-ca02-48c5-a642-3f452f79e439}, !- Handle
  {8764ea45-7553-4c7e-b5b5-ed32b3293f31}, !- Zone or ZoneList Name
  SupplyAirTemperature,                   !- Zone Cooling Design Supply Air Temperature Input Method
  14,                                     !- Zone Cooling Design Supply Air Temperature {C}
  11.11,                                  !- Zone Cooling Design Supply Air Temperature Difference {deltaC}
  SupplyAirTemperature,                   !- Zone Heating Design Supply Air Temperature Input Method
  40,                                     !- Zone Heating Design Supply Air Temperature {C}
  11.11,                                  !- Zone Heating Design Supply Air Temperature Difference {deltaC}
  0.0085,                                 !- Zone Cooling Design Supply Air Humidity Ratio {kg-H2O/kg-air}
  0.008,                                  !- Zone Heating Design Supply Air Humidity Ratio {kg-H2O/kg-air}
  ,                                       !- Zone Heating Sizing Factor
  ,                                       !- Zone Cooling Sizing Factor
  DesignDay,                              !- Cooling Design Air Flow Method
  ,                                       !- Cooling Design Air Flow Rate {m3/s}
  ,                                       !- Cooling Minimum Air Flow per Zone Floor Area {m3/s-m2}
  ,                                       !- Cooling Minimum Air Flow {m3/s}
  ,                                       !- Cooling Minimum Air Flow Fraction
  DesignDay,                              !- Heating Design Air Flow Method
  ,                                       !- Heating Design Air Flow Rate {m3/s}
  ,                                       !- Heating Maximum Air Flow per Zone Floor Area {m3/s-m2}
  ,                                       !- Heating Maximum Air Flow {m3/s}
  ,                                       !- Heating Maximum Air Flow Fraction
  No,                                     !- Account for Dedicated Outdoor Air System
  NeutralSupplyAir,                       !- Dedicated Outdoor Air System Control Strategy
  autosize,                               !- Dedicated Outdoor Air Low Setpoint Temperature for Design {C}
  autosize;                               !- Dedicated Outdoor Air High Setpoint Temperature for Design {C}

OS:ZoneHVAC:EquipmentList,
  {5e213f79-efc2-44c5-a991-4343f5d29c12}, !- Handle
  Zone HVAC Equipment List 1,             !- Name
  {8764ea45-7553-4c7e-b5b5-ed32b3293f31}, !- Thermal Zone
  SequentialLoad,                         !- Load Distribution Scheme
  {7f2c4abf-6922-45ec-a944-8ff56570685e}, !- Zone Equipment 1
  1,                                      !- Zone Equipment Cooling Sequence 1
  1,                                      !- Zone Equipment Heating or No-Load Sequence 1
  ,                                       !- Zone Equipment Sequential Cooling Fraction Schedule Name 1
  ;                                       !- Zone Equipment Sequential Heating Fraction Schedule Name 1

OS:Space,
  {b72ee20e-779f-4ffe-a92f-93ff7750ee79}, !- Handle
  living space,                           !- Name
  {e4515519-ccb6-4329-8d17-699ed6fd1f9d}, !- Space Type Name
  ,                                       !- Default Construction Set Name
  ,                                       !- Default Schedule Set Name
  -0,                                     !- Direction of Relative North {deg}
  0,                                      !- X Origin {m}
  0,                                      !- Y Origin {m}
  0,                                      !- Z Origin {m}
  ,                                       !- Building Story Name
  {8764ea45-7553-4c7e-b5b5-ed32b3293f31}, !- Thermal Zone Name
  ,                                       !- Part of Total Floor Area
  ,                                       !- Design Specification Outdoor Air Object Name
  {15b810d6-7cf3-459e-8a4b-da9414c16ad3}; !- Building Unit Name

OS:Surface,
  {6e028e22-74d5-416b-9c02-d03b714a1709}, !- Handle
  Surface 1,                              !- Name
  Floor,                                  !- Surface Type
  {44c22de1-c9ed-4355-bb06-2332f9787cb2}, !- Construction Name
  {b72ee20e-779f-4ffe-a92f-93ff7750ee79}, !- Space Name
  Foundation,                             !- Outside Boundary Condition
  {77b31a32-57f8-4503-b14e-feb4d0c79b48}, !- Outside Boundary Condition Object
  NoSun,                                  !- Sun Exposure
  NoWind,                                 !- Wind Exposure
  ,                                       !- View Factor to Ground
  ,                                       !- Number of Vertices
  0, 0, 0,                                !- X,Y,Z Vertex 1 {m}
  0, 7.49364573488766, 0,                 !- X,Y,Z Vertex 2 {m}
  13.4885623227978, 7.49364573488766, 0,  !- X,Y,Z Vertex 3 {m}
  13.4885623227978, 0, 0;                 !- X,Y,Z Vertex 4 {m}

OS:Surface,
  {14be2b0c-174b-4357-8f61-98190120de20}, !- Handle
  Surface 2,                              !- Name
  Wall,                                   !- Surface Type
  {f8b49b55-8acd-4406-9640-0c4024869a8d}, !- Construction Name
  {b72ee20e-779f-4ffe-a92f-93ff7750ee79}, !- Space Name
  Outdoors,                               !- Outside Boundary Condition
  ,                                       !- Outside Boundary Condition Object
  SunExposed,                             !- Sun Exposure
  WindExposed,                            !- Wind Exposure
  ,                                       !- View Factor to Ground
  ,                                       !- Number of Vertices
  0, 7.49364573488766, 2.4384,            !- X,Y,Z Vertex 1 {m}
  0, 7.49364573488766, 0,                 !- X,Y,Z Vertex 2 {m}
  0, 0, 0,                                !- X,Y,Z Vertex 3 {m}
  0, 0, 2.4384;                           !- X,Y,Z Vertex 4 {m}

OS:Surface,
  {67190abe-abf3-40e1-9b36-4f2d861d22ed}, !- Handle
  Surface 3,                              !- Name
  Wall,                                   !- Surface Type
  {f8b49b55-8acd-4406-9640-0c4024869a8d}, !- Construction Name
  {b72ee20e-779f-4ffe-a92f-93ff7750ee79}, !- Space Name
  Outdoors,                               !- Outside Boundary Condition
  ,                                       !- Outside Boundary Condition Object
  SunExposed,                             !- Sun Exposure
  WindExposed,                            !- Wind Exposure
  ,                                       !- View Factor to Ground
  ,                                       !- Number of Vertices
  13.4885623227978, 7.49364573488766, 2.4384, !- X,Y,Z Vertex 1 {m}
  13.4885623227978, 7.49364573488766, 0,  !- X,Y,Z Vertex 2 {m}
  0, 7.49364573488766, 0,                 !- X,Y,Z Vertex 3 {m}
  0, 7.49364573488766, 2.4384;            !- X,Y,Z Vertex 4 {m}

OS:Surface,
  {132e7c2c-df9f-46e1-9dbd-c1a2556bd597}, !- Handle
  Surface 4,                              !- Name
  Wall,                                   !- Surface Type
  {f8b49b55-8acd-4406-9640-0c4024869a8d}, !- Construction Name
  {b72ee20e-779f-4ffe-a92f-93ff7750ee79}, !- Space Name
  Outdoors,                               !- Outside Boundary Condition
  ,                                       !- Outside Boundary Condition Object
  SunExposed,                             !- Sun Exposure
  WindExposed,                            !- Wind Exposure
  ,                                       !- View Factor to Ground
  ,                                       !- Number of Vertices
  13.4885623227978, 0, 2.4384,            !- X,Y,Z Vertex 1 {m}
  13.4885623227978, 0, 0,                 !- X,Y,Z Vertex 2 {m}
  13.4885623227978, 7.49364573488766, 0,  !- X,Y,Z Vertex 3 {m}
  13.4885623227978, 7.49364573488766, 2.4384; !- X,Y,Z Vertex 4 {m}

OS:Surface,
  {b5e262a6-3c05-43e1-b871-0361b50edd2d}, !- Handle
  Surface 5,                              !- Name
  Wall,                                   !- Surface Type
  {f8b49b55-8acd-4406-9640-0c4024869a8d}, !- Construction Name
  {b72ee20e-779f-4ffe-a92f-93ff7750ee79}, !- Space Name
  Outdoors,                               !- Outside Boundary Condition
  ,                                       !- Outside Boundary Condition Object
  SunExposed,                             !- Sun Exposure
  WindExposed,                            !- Wind Exposure
  ,                                       !- View Factor to Ground
  ,                                       !- Number of Vertices
  1.04865714285714, 0, 3.02804354479491e-07, !- X,Y,Z Vertex 1 {m}
  13.4885623227978, 0, 0,                 !- X,Y,Z Vertex 2 {m}
  13.4885623227978, 0, 2.4384,            !- X,Y,Z Vertex 3 {m}
  1.04865714285714, 0, 2.43839969719565;  !- X,Y,Z Vertex 4 {m}

OS:Surface,
  {c085e241-65f8-41aa-844e-1805c1fd63ad}, !- Handle
  Surface 6,                              !- Name
  RoofCeiling,                            !- Surface Type
  {bfcd0b87-c313-497c-a5f5-652fb94a1203}, !- Construction Name
  {b72ee20e-779f-4ffe-a92f-93ff7750ee79}, !- Space Name
  Surface,                                !- Outside Boundary Condition
  {668240ae-78d5-4fe4-8cd3-d324470c958d}, !- Outside Boundary Condition Object
  NoSun,                                  !- Sun Exposure
  NoWind,                                 !- Wind Exposure
  ,                                       !- View Factor to Ground
  ,                                       !- Number of Vertices
  13.4885623227978, 0, 2.4384,            !- X,Y,Z Vertex 1 {m}
  13.4885623227978, 7.49364573488766, 2.4384, !- X,Y,Z Vertex 2 {m}
  0, 7.49364573488766, 2.4384,            !- X,Y,Z Vertex 3 {m}
  0, 0, 2.4384;                           !- X,Y,Z Vertex 4 {m}

OS:SpaceType,
  {e4515519-ccb6-4329-8d17-699ed6fd1f9d}, !- Handle
  Space Type 1,                           !- Name
  ,                                       !- Default Construction Set Name
  ,                                       !- Default Schedule Set Name
  {1df5dda2-c513-4b29-91d6-6a2d524845da}, !- Group Rendering Name
  ,                                       !- Design Specification Outdoor Air Object Name
  ,                                       !- Standards Template
  ,                                       !- Standards Building Type
  living;                                 !- Standards Space Type

OS:Space,
  {674e704e-32de-498a-8f9d-d77175de0f06}, !- Handle
  living space|story 2,                   !- Name
  {e4515519-ccb6-4329-8d17-699ed6fd1f9d}, !- Space Type Name
  ,                                       !- Default Construction Set Name
  ,                                       !- Default Schedule Set Name
  -0,                                     !- Direction of Relative North {deg}
  0,                                      !- X Origin {m}
  0,                                      !- Y Origin {m}
  2.4384,                                 !- Z Origin {m}
  ,                                       !- Building Story Name
  {8764ea45-7553-4c7e-b5b5-ed32b3293f31}, !- Thermal Zone Name
  ,                                       !- Part of Total Floor Area
  ,                                       !- Design Specification Outdoor Air Object Name
  {15b810d6-7cf3-459e-8a4b-da9414c16ad3}; !- Building Unit Name

OS:Surface,
  {668240ae-78d5-4fe4-8cd3-d324470c958d}, !- Handle
  Surface 7,                              !- Name
  Floor,                                  !- Surface Type
  {b0df8baa-5e26-461a-8ba2-4fe041598ec2}, !- Construction Name
  {674e704e-32de-498a-8f9d-d77175de0f06}, !- Space Name
  Surface,                                !- Outside Boundary Condition
  {c085e241-65f8-41aa-844e-1805c1fd63ad}, !- Outside Boundary Condition Object
  NoSun,                                  !- Sun Exposure
  NoWind,                                 !- Wind Exposure
  ,                                       !- View Factor to Ground
  ,                                       !- Number of Vertices
  0, 0, 0,                                !- X,Y,Z Vertex 1 {m}
  0, 7.49364573488766, 0,                 !- X,Y,Z Vertex 2 {m}
  13.4885623227978, 7.49364573488766, 0,  !- X,Y,Z Vertex 3 {m}
  13.4885623227978, 0, 0;                 !- X,Y,Z Vertex 4 {m}

OS:Surface,
  {3dca90ed-2581-404b-ba03-ec48987e9052}, !- Handle
  Surface 8,                              !- Name
  Wall,                                   !- Surface Type
  {f8b49b55-8acd-4406-9640-0c4024869a8d}, !- Construction Name
  {674e704e-32de-498a-8f9d-d77175de0f06}, !- Space Name
  Outdoors,                               !- Outside Boundary Condition
  ,                                       !- Outside Boundary Condition Object
  SunExposed,                             !- Sun Exposure
  WindExposed,                            !- Wind Exposure
  ,                                       !- View Factor to Ground
  ,                                       !- Number of Vertices
  0, 7.49364573488766, 2.4384,            !- X,Y,Z Vertex 1 {m}
  0, 7.49364573488766, 0,                 !- X,Y,Z Vertex 2 {m}
  0, 0, 0,                                !- X,Y,Z Vertex 3 {m}
  0, 0, 2.4384;                           !- X,Y,Z Vertex 4 {m}

OS:Surface,
  {94ca8bbf-1675-401b-8c11-801acf0be63f}, !- Handle
  Surface 9,                              !- Name
  Wall,                                   !- Surface Type
  {f8b49b55-8acd-4406-9640-0c4024869a8d}, !- Construction Name
  {674e704e-32de-498a-8f9d-d77175de0f06}, !- Space Name
  Outdoors,                               !- Outside Boundary Condition
  ,                                       !- Outside Boundary Condition Object
  SunExposed,                             !- Sun Exposure
  WindExposed,                            !- Wind Exposure
  ,                                       !- View Factor to Ground
  ,                                       !- Number of Vertices
  13.4885623227978, 7.49364573488766, 2.4384, !- X,Y,Z Vertex 1 {m}
  13.4885623227978, 7.49364573488766, 0,  !- X,Y,Z Vertex 2 {m}
  0, 7.49364573488766, 0,                 !- X,Y,Z Vertex 3 {m}
  0, 7.49364573488766, 2.4384;            !- X,Y,Z Vertex 4 {m}

OS:Surface,
  {678d3fef-5ab1-4273-bdf3-f30c517affd4}, !- Handle
  Surface 10,                             !- Name
  Wall,                                   !- Surface Type
  {f8b49b55-8acd-4406-9640-0c4024869a8d}, !- Construction Name
  {674e704e-32de-498a-8f9d-d77175de0f06}, !- Space Name
  Outdoors,                               !- Outside Boundary Condition
  ,                                       !- Outside Boundary Condition Object
  SunExposed,                             !- Sun Exposure
  WindExposed,                            !- Wind Exposure
  ,                                       !- View Factor to Ground
  ,                                       !- Number of Vertices
  13.4885623227978, 0, 2.4384,            !- X,Y,Z Vertex 1 {m}
  13.4885623227978, 0, 0,                 !- X,Y,Z Vertex 2 {m}
  13.4885623227978, 7.49364573488766, 0,  !- X,Y,Z Vertex 3 {m}
  13.4885623227978, 7.49364573488766, 2.4384; !- X,Y,Z Vertex 4 {m}

OS:Surface,
  {4a3c7359-8998-4280-9d9e-3d5b5e0ca91b}, !- Handle
  Surface 11,                             !- Name
  Wall,                                   !- Surface Type
  {f8b49b55-8acd-4406-9640-0c4024869a8d}, !- Construction Name
  {674e704e-32de-498a-8f9d-d77175de0f06}, !- Space Name
  Outdoors,                               !- Outside Boundary Condition
  ,                                       !- Outside Boundary Condition Object
  SunExposed,                             !- Sun Exposure
  WindExposed,                            !- Wind Exposure
  ,                                       !- View Factor to Ground
  ,                                       !- Number of Vertices
  0, 0, 2.4384,                           !- X,Y,Z Vertex 1 {m}
  0, 0, 0,                                !- X,Y,Z Vertex 2 {m}
  13.4885623227978, 0, 0,                 !- X,Y,Z Vertex 3 {m}
  13.4885623227978, 0, 2.4384;            !- X,Y,Z Vertex 4 {m}

OS:Surface,
  {09d0c2c7-e856-41ed-bc2b-17157c131e89}, !- Handle
  Surface 12,                             !- Name
  RoofCeiling,                            !- Surface Type
  {88e599ef-edac-4592-a71f-5a113c717952}, !- Construction Name
  {674e704e-32de-498a-8f9d-d77175de0f06}, !- Space Name
  Surface,                                !- Outside Boundary Condition
  {f14d72c9-7548-4a2b-9a1f-820c9311bb0b}, !- Outside Boundary Condition Object
  NoSun,                                  !- Sun Exposure
  NoWind,                                 !- Wind Exposure
  ,                                       !- View Factor to Ground
  ,                                       !- Number of Vertices
  13.4885623227978, 0, 2.4384,            !- X,Y,Z Vertex 1 {m}
  13.4885623227978, 7.49364573488766, 2.4384, !- X,Y,Z Vertex 2 {m}
  0, 7.49364573488766, 2.4384,            !- X,Y,Z Vertex 3 {m}
  0, 0, 2.4384;                           !- X,Y,Z Vertex 4 {m}

OS:Surface,
  {f14d72c9-7548-4a2b-9a1f-820c9311bb0b}, !- Handle
  Surface 13,                             !- Name
  Floor,                                  !- Surface Type
  {530671e5-c33c-4592-bfe6-f4ed1c131fc1}, !- Construction Name
  {17a3f0e2-d837-46e1-9fd2-75fdde02cc4b}, !- Space Name
  Surface,                                !- Outside Boundary Condition
  {09d0c2c7-e856-41ed-bc2b-17157c131e89}, !- Outside Boundary Condition Object
  NoSun,                                  !- Sun Exposure
  NoWind,                                 !- Wind Exposure
  ,                                       !- View Factor to Ground
  ,                                       !- Number of Vertices
  0, 7.49364573488766, 0,                 !- X,Y,Z Vertex 1 {m}