!-Generator IDFEditor 1.51
!-Option SortedOrder

!-NOTE: All comments with '!-' are ignored by the IDFEditor and are generated automatically.
!-      Use '!' comments if they need to be retained when using the IDFEditor.


!-   ===========  ALL OBJECTS IN CLASS: VERSION ===========

Version,
    9.6;                     !- Version Identifier


!-   ===========  ALL OBJECTS IN CLASS: SIMULATIONCONTROL ===========

SimulationControl,
    Yes,                     !- Do Zone Sizing Calculation
    No,                      !- Do System Sizing Calculation
    Yes,                     !- Do Plant Sizing Calculation
    Yes,                     !- Run Simulation for Sizing Periods
    Yes,                     !- Run Simulation for Weather File Run Periods
    ,                        !- Do HVAC Sizing Simulation for Sizing Periods
    ;                        !- Maximum Number of HVAC Sizing Simulation Passes


!-   ===========  ALL OBJECTS IN CLASS: BUILDING ===========

Building,
    Building 1,              !- Name
    180,                     !- North Axis {deg}
    Suburbs,                 !- Terrain
    ,                        !- Loads Convergence Tolerance Value {W}
    ,                        !- Temperature Convergence Tolerance Value {deltaC}
    ,                        !- Solar Distribution
    ,                        !- Maximum Number of Warmup Days
    ;                        !- Minimum Number of Warmup Days


!-   ===========  ALL OBJECTS IN CLASS: SHADOWCALCULATION ===========

ShadowCalculation,
    PolygonClipping,         !- Shading Calculation Method
    Periodic,                !- Shading Calculation Update Frequency Method
    20,                      !- Shading Calculation Update Frequency
    200,                     !- Maximum Figures in Shadow Overlap Calculations
    SutherlandHodgman,       !- Polygon Clipping Algorithm
    512,                     !- Pixel Counting Resolution
    DetailedSkyDiffuseModeling,  !- Sky Diffuse Modeling Algorithm
    No,                      !- Output External Shading Calculation Results
    No,                      !- Disable Self-Shading Within Shading Zone Groups
    No;                      !- Disable Self-Shading From Shading Zone Groups to Other Zones


!-   ===========  ALL OBJECTS IN CLASS: SURFACECONVECTIONALGORITHM:INSIDE ===========

SurfaceConvectionAlgorithm:Inside,
    TARP;                    !- Algorithm


!-   ===========  ALL OBJECTS IN CLASS: SURFACECONVECTIONALGORITHM:OUTSIDE ===========

SurfaceConvectionAlgorithm:Outside,
    DOE-2;                   !- Algorithm


!-   ===========  ALL OBJECTS IN CLASS: HEATBALANCEALGORITHM ===========

HeatBalanceAlgorithm,
    ConductionTransferFunction,  !- Algorithm
    200;                     !- Surface Temperature Upper Limit {C}


!-   ===========  ALL OBJECTS IN CLASS: ZONECAPACITANCEMULTIPLIER:RESEARCHSPECIAL ===========

ZoneCapacitanceMultiplier:ResearchSpecial,
    Zone Capacitance Multiplier Research Special,  !- Name
    ,                        !- Zone or ZoneList Name
    ,                        !- Temperature Capacity Multiplier
    15,                      !- Humidity Capacity Multiplier
    ,                        !- Carbon Dioxide Capacity Multiplier
    ;                        !- Generic Contaminant Capacity Multiplier


!-   ===========  ALL OBJECTS IN CLASS: TIMESTEP ===========

Timestep,
    4;                       !- Number of Timesteps per Hour


!-   ===========  ALL OBJECTS IN CLASS: SITE:LOCATION ===========

Site:Location,
    Denver-Aurora-Buckley AFB,  !- Name
    39.72,                   !- Latitude {deg}
    -104.75,                 !- Longitude {deg}
    -7,                      !- Time Zone {hr}
    1726;                    !- Elevation {m}


!-   ===========  ALL OBJECTS IN CLASS: SIZINGPERIOD:DESIGNDAY ===========

SizingPeriod:DesignDay,
    Ann Clg 1% Condns DB=>MWB,  !- Name
    7,                       !- Month
    21,                      !- Day of Month
    SummerDesignDay,         !- Day Type
    27.8,                    !- Maximum Dry-Bulb Temperature {C}
    6.5,                     !- Daily Dry-Bulb Temperature Range {deltaC}
    DefaultMultipliers,      !- Dry-Bulb Temperature Range Modifier Type
    ,                        !- Dry-Bulb Temperature Range Modifier Day Schedule Name
    Wetbulb,                 !- Humidity Condition Type
    17.9,                    !- Wetbulb or DewPoint at Maximum Dry-Bulb {C}
    ,                        !- Humidity Condition Day Schedule Name
    ,                        !- Humidity Ratio at Maximum Dry-Bulb {kgWater/kgDryAir}
    ,                        !- Enthalpy at Maximum Dry-Bulb {J/kg}
    ,                        !- Daily Wet-Bulb Temperature Range {deltaC}
    101073.336182315,        !- Barometric Pressure {Pa}
    3.1,                     !- Wind Speed {m/s}
    0,                       !- Wind Direction {deg}
    No,                      !- Rain Indicator
    No,                      !- Snow Indicator
    No,                      !- Daylight Saving Time Indicator
    ASHRAEClearSky,          !- Solar Model Indicator
    ,                        !- Beam Solar Day Schedule Name
    ,                        !- Diffuse Solar Day Schedule Name
    ,                        !- ASHRAE Clear Sky Optical Depth for Beam Irradiance (taub) {dimensionless}
    ,                        !- ASHRAE Clear Sky Optical Depth for Diffuse Irradiance (taud) {dimensionless}
    0,                       !- Sky Clearness
    ,                        !- Maximum Number Warmup Days
    FullResetAtBeginEnvironment;  !- Begin Environment Reset Mode

SizingPeriod:DesignDay,
    Ann Htg 99% Condns DB,   !- Name
    1,                       !- Month
    21,                      !- Day of Month
    WinterDesignDay,         !- Day Type
    7.6,                     !- Maximum Dry-Bulb Temperature {C}
    0,                       !- Daily Dry-Bulb Temperature Range {deltaC}
    DefaultMultipliers,      !- Dry-Bulb Temperature Range Modifier Type
    ,                        !- Dry-Bulb Temperature Range Modifier Day Schedule Name
    Wetbulb,                 !- Humidity Condition Type
    7.6,                     !- Wetbulb or DewPoint at Maximum Dry-Bulb {C}
    ,                        !- Humidity Condition Day Schedule Name
    ,                        !- Humidity Ratio at Maximum Dry-Bulb {kgWater/kgDryAir}
    ,                        !- Enthalpy at Maximum Dry-Bulb {J/kg}
    ,                        !- Daily Wet-Bulb Temperature Range {deltaC}
    101073.336182315,        !- Barometric Pressure {Pa}
    7.1,                     !- Wind Speed {m/s}
    0,                       !- Wind Direction {deg}
    No,                      !- Rain Indicator
    No,                      !- Snow Indicator
    No,                      !- Daylight Saving Time Indicator
    ASHRAEClearSky,          !- Solar Model Indicator
    ,                        !- Beam Solar Day Schedule Name
    ,                        !- Diffuse Solar Day Schedule Name
    ,                        !- ASHRAE Clear Sky Optical Depth for Beam Irradiance (taub) {dimensionless}
    ,                        !- ASHRAE Clear Sky Optical Depth for Diffuse Irradiance (taud) {dimensionless}
    0,                       !- Sky Clearness
    ,                        !- Maximum Number Warmup Days
    FullResetAtBeginEnvironment;  !- Begin Environment Reset Mode


!-   ===========  ALL OBJECTS IN CLASS: RUNPERIOD ===========

RunPeriod,
    Run Period 1,            !- Name
    1,                       !- Begin Month
    1,                       !- Begin Day of Month
    ,                        !- Begin Year
    1,                       !- End Month
    1,                       !- End Day of Month
    ,                        !- End Year
    Sunday,                  !- Day of Week for Start Day
    No,                      !- Use Weather File Holidays and Special Days
    No,                      !- Use Weather File Daylight Saving Period
    No,                      !- Apply Weekend Holiday Rule
    Yes,                     !- Use Weather File Rain Indicators
    Yes;                     !- Use Weather File Snow Indicators


!-   ===========  ALL OBJECTS IN CLASS: RUNPERIODCONTROL:DAYLIGHTSAVINGTIME ===========

RunPeriodControl:DaylightSavingTime,
    3/10,                    !- Start Date
    11/3;                    !- End Date


!-   ===========  ALL OBJECTS IN CLASS: SITE:GROUNDTEMPERATURE:DEEP ===========

Site:GroundTemperature:Deep,
    16.8229680365297,        !- January Deep Ground Temperature {C}
    16.8229680365297,        !- February Deep Ground Temperature {C}
    16.8229680365297,        !- March Deep Ground Temperature {C}
    16.8229680365297,        !- April Deep Ground Temperature {C}
    16.8229680365297,        !- May Deep Ground Temperature {C}
    16.8229680365297,        !- June Deep Ground Temperature {C}
    16.8229680365297,        !- July Deep Ground Temperature {C}
    16.8229680365297,        !- August Deep Ground Temperature {C}
    16.8229680365297,        !- September Deep Ground Temperature {C}
    16.8229680365297,        !- October Deep Ground Temperature {C}
    16.8229680365297,        !- November Deep Ground Temperature {C}
    16.8229680365297;        !- December Deep Ground Temperature {C}


!-   ===========  ALL OBJECTS IN CLASS: SITE:WATERMAINSTEMPERATURE ===========

Site:WaterMainsTemperature,
    Correlation,             !- Calculation Method
    ,                        !- Temperature Schedule Name
    16.8229680365297,        !- Annual Average Outdoor Air Temperature {C}
    7.03978494623657;        !- Maximum Difference In Monthly Average Outdoor Air Temperatures {deltaC}


!-   ===========  ALL OBJECTS IN CLASS: SCHEDULETYPELIMITS ===========

ScheduleTypeLimits,
    Fractional,              !- Name
    0,                       !- Lower Limit Value
    1,                       !- Upper Limit Value
    Continuous;              !- Numeric Type

ScheduleTypeLimits,
    living zone Thermostat Schedule Type Limits,  !- Name
    0,                       !- Lower Limit Value
    4,                       !- Upper Limit Value
    DISCRETE;                !- Numeric Type

ScheduleTypeLimits,
    Temperature,             !- Name
    ,                        !- Lower Limit Value
    ,                        !- Upper Limit Value
    Continuous,              !- Numeric Type
    temperature;             !- Unit Type

ScheduleTypeLimits,
    ActivityLevel,           !- Name
    0,                       !- Lower Limit Value
    ,                        !- Upper Limit Value
    Continuous,              !- Numeric Type
    activitylevel;           !- Unit Type

ScheduleTypeLimits,
    OnOff,                   !- Name
    0,                       !- Lower Limit Value
    1,                       !- Upper Limit Value
    Discrete,                !- Numeric Type
    availability;            !- Unit Type


!-   ===========  ALL OBJECTS IN CLASS: SCHEDULE:DAY:INTERVAL ===========

Schedule:Day:Interval,
    res heating setpoint weekend1,  !- Name
    Temperature,             !- Schedule Type Limits Name
    No,                      !- Interpolate to Timestep
    02:00,                   !- Time 1 {hh:mm}
    22.5,                    !- Value Until Time 1
    11:00,                   !- Time 2 {hh:mm}
    23.0555555555556,        !- Value Until Time 2
    24:00,                   !- Time 3 {hh:mm}
    22.5;                    !- Value Until Time 3

Schedule:Day:Interval,
    res heating setpoint weekday1,  !- Name
    Temperature,             !- Schedule Type Limits Name
    No,                      !- Interpolate to Timestep
    02:00,                   !- Time 1 {hh:mm}
    22.5,                    !- Value Until Time 1
    11:00,                   !- Time 2 {hh:mm}
    23.0555555555556,        !- Value Until Time 2
    13:00,                   !- Time 3 {hh:mm}
    22.5,                    !- Value Until Time 3
    21:00,                   !- Time 4 {hh:mm}
    22.2222222222222,        !- Value Until Time 4
    24:00,                   !- Time 5 {hh:mm}
    22.5;                    !- Value Until Time 5

Schedule:Day:Interval,
    res heating setpoint weekday2,  !- Name
    Temperature,             !- Schedule Type Limits Name
    No,                      !- Interpolate to Timestep
    02:00,                   !- Time 1 {hh:mm}
    22.5,                    !- Value Until Time 1
    11:00,                   !- Time 2 {hh:mm}
    23.0555555555556,        !- Value Until Time 2
    13:00,                   !- Time 3 {hh:mm}
    22.5,                    !- Value Until Time 3
    21:00,                   !- Time 4 {hh:mm}
    22.2222222222222,        !- Value Until Time 4
    24:00,                   !- Time 5 {hh:mm}
    22.5;                    !- Value Until Time 5

Schedule:Day:Interval,
    res heating setpoint weekend2,  !- Name
    Temperature,             !- Schedule Type Limits Name
    No,                      !- Interpolate to Timestep
    02:00,                   !- Time 1 {hh:mm}
    22.5,                    !- Value Until Time 1
    11:00,                   !- Time 2 {hh:mm}
    23.0555555555556,        !- Value Until Time 2
    24:00,                   !- Time 3 {hh:mm}
    22.5;                    !- Value Until Time 3

Schedule:Day:Interval,
    res heating setpoint weekday3,  !- Name
    Temperature,             !- Schedule Type Limits Name
    No,                      !- Interpolate to Timestep
    02:00,                   !- Time 1 {hh:mm}
    22.5,                    !- Value Until Time 1
    11:00,                   !- Time 2 {hh:mm}
    23.0555555555556,        !- Value Until Time 2
    13:00,                   !- Time 3 {hh:mm}
    22.5,                    !- Value Until Time 3
    21:00,                   !- Time 4 {hh:mm}
    22.2222222222222,        !- Value Until Time 4
    24:00,                   !- Time 5 {hh:mm}
    22.5;                    !- Value Until Time 5

Schedule:Day:Interval,
    res heating setpoint weekend3,  !- Name
    Temperature,             !- Schedule Type Limits Name
    No,                      !- Interpolate to Timestep
    02:00,                   !- Time 1 {hh:mm}
    22.5,                    !- Value Until Time 1
    11:00,                   !- Time 2 {hh:mm}
    23.0555555555556,        !- Value Until Time 2
    24:00,                   !- Time 3 {hh:mm}
    22.5;                    !- Value Until Time 3

Schedule:Day:Interval,
    res heating setpoint weekend4,  !- Name
    Temperature,             !- Schedule Type Limits Name
    No,                      !- Interpolate to Timestep
    02:00,                   !- Time 1 {hh:mm}
    22.5,                    !- Value Until Time 1
    11:00,                   !- Time 2 {hh:mm}
    23.0555555555556,        !- Value Until Time 2
    24:00,                   !- Time 3 {hh:mm}
    22.5;                    !- Value Until Time 3

Schedule:Day:Interval,
    res heating setpoint weekday4,  !- Name
    Temperature,             !- Schedule Type Limits Name
    No,                      !- Interpolate to Timestep
    02:00,                   !- Time 1 {hh:mm}
    22.5,                    !- Value Until Time 1
    11:00,                   !- Time 2 {hh:mm}
    23.0555555555556,        !- Value Until Time 2
    13:00,                   !- Time 3 {hh:mm}
    22.5,                    !- Value Until Time 3
    21:00,                   !- Time 4 {hh:mm}
    22.2222222222222,        !- Value Until Time 4
    24:00,                   !- Time 5 {hh:mm}
    22.5;                    !- Value Until Time 5

Schedule:Day:Interval,
    res heating setpoint weekday5,  !- Name
    Temperature,             !- Schedule Type Limits Name
    No,                      !- Interpolate to Timestep
    02:00,                   !- Time 1 {hh:mm}
    22.5,                    !- Value Until Time 1
    11:00,                   !- Time 2 {hh:mm}
    23.0555555555556,        !- Value Until Time 2
    13:00,                   !- Time 3 {hh:mm}
    22.5,                    !- Value Until Time 3
    21:00,                   !- Time 4 {hh:mm}
    22.2222222222222,        !- Value Until Time 4
    24:00,                   !- Time 5 {hh:mm}
    22.5;                    !- Value Until Time 5

Schedule:Day:Interval,
    res heating setpoint weekend5,  !- Name
    Temperature,             !- Schedule Type Limits Name
    No,                      !- Interpolate to Timestep
    02:00,                   !- Time 1 {hh:mm}
    22.5,                    !- Value Until Time 1
    11:00,                   !- Time 2 {hh:mm}
    23.0555555555556,        !- Value Until Time 2
    24:00,                   !- Time 3 {hh:mm}
    22.5;                    !- Value Until Time 3

Schedule:Day:Interval,
    res heating setpoint weekday6,  !- Name
    Temperature,             !- Schedule Type Limits Name
    No,                      !- Interpolate to Timestep
    02:00,                   !- Time 1 {hh:mm}
    22.5,                    !- Value Until Time 1
    11:00,                   !- Time 2 {hh:mm}
    23.0555555555556,        !- Value Until Time 2
    13:00,                   !- Time 3 {hh:mm}
    22.5,                    !- Value Until Time 3
    21:00,                   !- Time 4 {hh:mm}
    22.2222222222222,        !- Value Until Time 4
    24:00,                   !- Time 5 {hh:mm}
    22.5;                    !- Value Until Time 5

Schedule:Day:Interval,
    res heating setpoint weekend6,  !- Name
    Temperature,             !- Schedule Type Limits Name
    No,                      !- Interpolate to Timestep
    02:00,                   !- Time 1 {hh:mm}
    22.5,                    !- Value Until Time 1
    11:00,                   !- Time 2 {hh:mm}
    23.0555555555556,        !- Value Until Time 2
    24:00,                   !- Time 3 {hh:mm}
    22.5;                    !- Value Until Time 3

Schedule:Day:Interval,
    res heating setpoint weekend7,  !- Name
    Temperature,             !- Schedule Type Limits Name
    No,                      !- Interpolate to Timestep
    02:00,                   !- Time 1 {hh:mm}
    22.5,                    !- Value Until Time 1
    11:00,                   !- Time 2 {hh:mm}
    23.0555555555556,        !- Value Until Time 2
    24:00,                   !- Time 3 {hh:mm}
    22.5;                    !- Value Until Time 3

Schedule:Day:Interval,
    res heating setpoint weekday7,  !- Name
    Temperature,             !- Schedule Type Limits Name
    No,                      !- Interpolate to Timestep
    02:00,                   !- Time 1 {hh:mm}
    22.5,                    !- Value Until Time 1
    11:00,                   !- Time 2 {hh:mm}
    23.0555555555556,        !- Value Until Time 2
    13:00,                   !- Time 3 {hh:mm}
    22.5,                    !- Value Until Time 3
    21:00,                   !- Time 4 {hh:mm}
    22.2222222222222,        !- Value Until Time 4
    24:00,                   !- Time 5 {hh:mm}
    22.5;                    !- Value Until Time 5

Schedule:Day:Interval,
    res heating setpoint weekday8,  !- Name
    Temperature,             !- Schedule Type Limits Name
    No,                      !- Interpolate to Timestep
    02:00,                   !- Time 1 {hh:mm}
    22.5,                    !- Value Until Time 1
    11:00,                   !- Time 2 {hh:mm}
    23.0555555555556,        !- Value Until Time 2
    13:00,                   !- Time 3 {hh:mm}
    22.5,                    !- Value Until Time 3
    21:00,                   !- Time 4 {hh:mm}
    22.2222222222222,        !- Value Until Time 4
    24:00,                   !- Time 5 {hh:mm}
    22.5;                    !- Value Until Time 5

Schedule:Day:Interval,
    res heating setpoint weekend8,  !- Name
    Temperature,             !- Schedule Type Limits Name
    No,                      !- Interpolate to Timestep
    02:00,                   !- Time 1 {hh:mm}
    22.5,                    !- Value Until Time 1
    11:00,                   !- Time 2 {hh:mm}
    23.0555555555556,        !- Value Until Time 2
    24:00,                   !- Time 3 {hh:mm}
    22.5;                    !- Value Until Time 3

Schedule:Day:Interval,
    res heating setpoint weekday9,  !- Name
    Temperature,             !- Schedule Type Limits Name
    No,                      !- Interpolate to Timestep
    02:00,                   !- Time 1 {hh:mm}
    22.5,                    !- Value Until Time 1
    11:00,                   !- Time 2 {hh:mm}
    23.0555555555556,        !- Value Until Time 2
    13:00,                   !- Time 3 {hh:mm}
    22.5,                    !- Value Until Time 3
    21:00,                   !- Time 4 {hh:mm}
    22.2222222222222,        !- Value Until Time 4
    24:00,                   !- Time 5 {hh:mm}
    22.5;                    !- Value Until Time 5

Schedule:Day:Interval,
    res heating setpoint weekend9,  !- Name
    Temperature,             !- Schedule Type Limits Name
    No,                      !- Interpolate to Timestep
    02:00,                   !- Time 1 {hh:mm}
    22.5,                    !- Value Until Time 1
    11:00,                   !- Time 2 {hh:mm}
    23.0555555555556,        !- Value Until Time 2
    24:00,                   !- Time 3 {hh:mm}
    22.5;                    !- Value Until Time 3

Schedule:Day:Interval,
    res heating setpoint weekend10,  !- Name
    Temperature,             !- Schedule Type Limits Name
    No,                      !- Interpolate to Timestep
    02:00,                   !- Time 1 {hh:mm}
    22.5,                    !- Value Until Time 1
    11:00,                   !- Time 2 {hh:mm}
    23.0555555555556,        !- Value Until Time 2
    24:00,                   !- Time 3 {hh:mm}
    22.5;                    !- Value Until Time 3

Schedule:Day:Interval,
    res heating setpoint weekday10,  !- Name
    Temperature,             !- Schedule Type Limits Name
    No,                      !- Interpolate to Timestep
    02:00,                   !- Time 1 {hh:mm}
    22.5,                    !- Value Until Time 1
    11:00,                   !- Time 2 {hh:mm}
    23.0555555555556,        !- Value Until Time 2
    13:00,                   !- Time 3 {hh:mm}
    22.5,                    !- Value Until Time 3
    21:00,                   !- Time 4 {hh:mm}
    22.2222222222222,        !- Value Until Time 4
    24:00,                   !- Time 5 {hh:mm}
    22.5;                    !- Value Until Time 5

Schedule:Day:Interval,
    res heating setpoint weekday11,  !- Name
    Temperature,             !- Schedule Type Limits Name
    No,                      !- Interpolate to Timestep
    02:00,                   !- Time 1 {hh:mm}
    22.5,                    !- Value Until Time 1
    11:00,                   !- Time 2 {hh:mm}
    23.0555555555556,        !- Value Until Time 2
    13:00,                   !- Time 3 {hh:mm}
    22.5,                    !- Value Until Time 3
    21:00,                   !- Time 4 {hh:mm}
    22.2222222222222,        !- Value Until Time 4
    24:00,                   !- Time 5 {hh:mm}
    22.5;                    !- Value Until Time 5

Schedule:Day:Interval,
    res heating setpoint weekend11,  !- Name
    Temperature,             !- Schedule Type Limits Name
    No,                      !- Interpolate to Timestep
    02:00,                   !- Time 1 {hh:mm}
    22.5,                    !- Value Until Time 1
    11:00,                   !- Time 2 {hh:mm}
    23.0555555555556,        !- Value Until Time 2
    24:00,                   !- Time 3 {hh:mm}
    22.5;                    !- Value Until Time 3

Schedule:Day:Interval,
    res heating setpoint weekday12,  !- Name
    Temperature,             !- Schedule Type Limits Name
    No,                      !- Interpolate to Timestep
    02:00,                   !- Time 1 {hh:mm}
    22.5,                    !- Value Until Time 1
    11:00,                   !- Time 2 {hh:mm}
    23.0555555555556,        !- Value Until Time 2
    13:00,                   !- Time 3 {hh:mm}
    22.5,                    !- Value Until Time 3
    21:00,                   !- Time 4 {hh:mm}
    22.2222222222222,        !- Value Until Time 4
    24:00,                   !- Time 5 {hh:mm}
    22.5;                    !- Value Until Time 5

Schedule:Day:Interval,
    res heating setpoint weekend12,  !- Name
    Temperature,             !- Schedule Type Limits Name
    No,                      !- Interpolate to Timestep
    02:00,                   !- Time 1 {hh:mm}
    22.5,                    !- Value Until Time 1
    11:00,                   !- Time 2 {hh:mm}
    23.0555555555556,        !- Value Until Time 2
    24:00,                   !- Time 3 {hh:mm}
    22.5;                    !- Value Until Time 3

Schedule:Day:Interval,
    Schedule Day 6,          !- Name
    Temperature,             !- Schedule Type Limits Name
    No,                      !- Interpolate to Timestep
    24:00,                   !- Time 1 {hh:mm}
    0;                       !- Value Until Time 1

Schedule:Day:Interval,
    res heating setpoint summer design,  !- Name
    Temperature,             !- Schedule Type Limits Name
    No,                      !- Interpolate to Timestep
    24:00,                   !- Time 1 {hh:mm}
    23.8888888888889;        !- Value Until Time 1

Schedule:Day:Interval,
    res heating setpoint winter design,  !- Name
    Temperature,             !- Schedule Type Limits Name
    No,                      !- Interpolate to Timestep
    24:00,                   !- Time 1 {hh:mm}
    21.1111111111111;        !- Value Until Time 1

Schedule:Day:Interval,
    res cooling setpoint weekend1,  !- Name
    Temperature,             !- Schedule Type Limits Name
    No,                      !- Interpolate to Timestep
    02:00,                   !- Time 1 {hh:mm}
    22.5,                    !- Value Until Time 1
    11:00,                   !- Time 2 {hh:mm}
    23.0555555555556,        !- Value Until Time 2
    24:00,                   !- Time 3 {hh:mm}
    22.5;                    !- Value Until Time 3

Schedule:Day:Interval,
    res cooling setpoint weekday1,  !- Name
    Temperature,             !- Schedule Type Limits Name
    No,                      !- Interpolate to Timestep
    02:00,                   !- Time 1 {hh:mm}
    22.5,                    !- Value Until Time 1
    11:00,                   !- Time 2 {hh:mm}
    23.0555555555556,        !- Value Until Time 2
    13:00,                   !- Time 3 {hh:mm}
    22.5,                    !- Value Until Time 3
    21:00,                   !- Time 4 {hh:mm}
    22.2222222222222,        !- Value Until Time 4
    24:00,                   !- Time 5 {hh:mm}
    22.5;                    !- Value Until Time 5

Schedule:Day:Interval,
    res cooling setpoint weekday2,  !- Name
    Temperature,             !- Schedule Type Limits Name
    No,                      !- Interpolate to Timestep
    02:00,                   !- Time 1 {hh:mm}
    22.5,                    !- Value Until Time 1
    11:00,                   !- Time 2 {hh:mm}
    23.0555555555556,        !- Value Until Time 2
    13:00,                   !- Time 3 {hh:mm}
    22.5,                    !- Value Until Time 3
    21:00,                   !- Time 4 {hh:mm}
    22.2222222222222,        !- Value Until Time 4
    24:00,                   !- Time 5 {hh:mm}
    22.5;                    !- Value Until Time 5

Schedule:Day:Interval,
    res cooling setpoint weekend2,  !- Name
    Temperature,             !- Schedule Type Limits Name
    No,                      !- Interpolate to Timestep
    02:00,                   !- Time 1 {hh:mm}
    22.5,                    !- Value Until Time 1
    11:00,                   !- Time 2 {hh:mm}
    23.0555555555556,        !- Value Until Time 2
    24:00,                   !- Time 3 {hh:mm}
    22.5;                    !- Value Until Time 3

Schedule:Day:Interval,
    res cooling setpoint weekday3,  !- Name
    Temperature,             !- Schedule Type Limits Name
    No,                      !- Interpolate to Timestep
    02:00,                   !- Time 1 {hh:mm}
    22.5,                    !- Value Until Time 1
    11:00,                   !- Time 2 {hh:mm}
    23.0555555555556,        !- Value Until Time 2
    13:00,                   !- Time 3 {hh:mm}
    22.5,                    !- Value Until Time 3
    21:00,                   !- Time 4 {hh:mm}
    22.2222222222222,        !- Value Until Time 4
    24:00,                   !- Time 5 {hh:mm}
    22.5;                    !- Value Until Time 5

Schedule:Day:Interval,
    res cooling setpoint weekend3,  !- Name
    Temperature,             !- Schedule Type Limits Name
    No,                      !- Interpolate to Timestep
    02:00,                   !- Time 1 {hh:mm}
    22.5,                    !- Value Until Time 1
    11:00,                   !- Time 2 {hh:mm}
    23.0555555555556,        !- Value Until Time 2
    24:00,                   !- Time 3 {hh:mm}
    22.5;                    !- Value Until Time 3

Schedule:Day:Interval,
    res cooling setpoint weekend4,  !- Name
    Temperature,             !- Schedule Type Limits Name
    No,                      !- Interpolate to Timestep
    02:00,                   !- Time 1 {hh:mm}
    22.5,                    !- Value Until Time 1
    11:00,                   !- Time 2 {hh:mm}
    23.0555555555556,        !- Value Until Time 2
    24:00,                   !- Time 3 {hh:mm}
    22.5;                    !- Value Until Time 3

Schedule:Day:Interval,
    res cooling setpoint weekday4,  !- Name
    Temperature,             !- Schedule Type Limits Name
    No,                      !- Interpolate to Timestep
    02:00,                   !- Time 1 {hh:mm}
    22.5,                    !- Value Until Time 1
    11:00,                   !- Time 2 {hh:mm}
    23.0555555555556,        !- Value Until Time 2