
OS:Version,
  {36e84837-8dd5-4e8a-ab5d-1fcfbcf27a77}, !- Handle
  3.3.0;                                  !- Version Identifier

OS:Building,
  {5c07e17f-ac8b-4f66-ba8b-1609e2e2e43e}, !- Handle
  Building 1,                             !- Name
  ,                                       !- Building Sector Type
  180,                                    !- North Axis {deg}
  ,                                       !- Nominal Floor to Floor Height {m}
  ,                                       !- Space Type Name
  ,                                       !- Default Construction Set Name
  ,                                       !- Default Schedule Set Name
  3,                                      !- Standards Number of Stories
  3,                                      !- Standards Number of Above Ground Stories
  ,                                       !- Standards Template
  multifamily,                            !- Standards Building Type
  24;                                     !- Standards Number of Living Units

OS:Facility,
  {31f92c91-09ab-446d-ad16-9564ef9d8eb6}; !- Handle

OS:Site,
  {2e272731-f80f-47a8-a505-c1dbc831ecb2}, !- Handle
  Denver-Aurora-Buckley AFB,              !- Name
  39.72,                                  !- Latitude {deg}
  -104.75,                                !- Longitude {deg}
  -7,                                     !- Time Zone {hr}
  1726,                                   !- Elevation {m}
  Suburbs;                                !- Terrain

OS:SimulationControl,
  {c7e89db5-8a8e-43f0-b48f-d2ed72f47bae}, !- Handle
  ,                                       !- Do Zone Sizing Calculation
  ,                                       !- Do System Sizing Calculation
  ,                                       !- Do Plant Sizing Calculation
  Yes;                                    !- Run Simulation for Sizing Periods

OS:Sizing:Parameters,
  {e8dc0f16-08cc-4624-85a9-5e57d8b4e3bc}, !- Handle
  1.25,                                   !- Heating Sizing Factor
  1.15;                                   !- Cooling Sizing Factor

OS:Timestep,
  {2503cee0-2256-4064-836e-e50b806ab442}, !- Handle
  4;                                      !- Number of Timesteps per Hour

OS:ShadowCalculation,
  {b39bed4c-d38f-4f21-a285-e83a137af911}, !- Handle
  PolygonClipping,                        !- Shading Calculation Method
  ,                                       !- Shading Calculation Update Frequency Method
  20,                                     !- Shading Calculation Update Frequency
  200,                                    !- Maximum Figures in Shadow Overlap Calculations
  ,                                       !- Polygon Clipping Algorithm
  512,                                    !- Pixel Counting Resolution
  DetailedSkyDiffuseModeling,             !- Sky Diffuse Modeling Algorithm
  No,                                     !- Output External Shading Calculation Results
  No,                                     !- Disable Self-Shading Within Shading Zone Groups
  No;                                     !- Disable Self-Shading From Shading Zone Groups to Other Zones

OS:HeatBalanceAlgorithm,
  {9603443d-fde6-4953-90f4-b608ec50ecd1}, !- Handle
  ConductionTransferFunction,             !- Algorithm
  200;                                    !- Surface Temperature Upper Limit {C}

OS:RunPeriod,
  {d6d14527-9875-491e-b73f-05b1f363b425}, !- Handle
  Run Period 1,                           !- Name
  1,                                      !- Begin Month
  1,                                      !- Begin Day of Month
  12,                                     !- End Month
  31,                                     !- End Day of Month
  ,                                       !- Use Weather File Holidays and Special Days
  ,                                       !- Use Weather File Daylight Saving Period
  ,                                       !- Apply Weekend Holiday Rule
  ,                                       !- Use Weather File Rain Indicators
  ,                                       !- Use Weather File Snow Indicators
  ;                                       !- Number of Times Runperiod to be Repeated

OS:LifeCycleCost:Parameters,
  {17256633-0af8-42d1-ad42-f63d8882d18a}, !- Handle
  ,                                       !- Analysis Type
  ,                                       !- Discounting Convention
  ,                                       !- Inflation Approach
  ,                                       !- Real Discount Rate
  ,                                       !- Nominal Discount Rate
  ,                                       !- Inflation
  ,                                       !- Base Date Month
  ,                                       !- Base Date Year
  ,                                       !- Service Date Month
  ,                                       !- Service Date Year
  ;                                       !- Length of Study Period in Years

OS:SurfaceConvectionAlgorithm:Outside,
  {6527642b-c765-4890-8eee-b159d68b5783}, !- Handle
  DOE-2;                                  !- Algorithm

OS:SurfaceConvectionAlgorithm:Inside,
  {fe6b2e2e-f446-4561-9928-052a504259b0}, !- Handle
  TARP;                                   !- Algorithm

OS:ZoneCapacitanceMultiplier:ResearchSpecial,
  {575f891d-23d9-4dc3-93db-edd583089733}, !- Handle
  ,                                       !- Temperature Capacity Multiplier
  15,                                     !- Humidity Capacity Multiplier
  ;                                       !- Carbon Dioxide Capacity Multiplier

OS:YearDescription,
  {e0c638db-148a-4074-b90c-1d39f0a12762}, !- Handle
  ,                                       !- Calendar Year
  Sunday,                                 !- Day of Week for Start Day
  ;                                       !- Is Leap Year

OS:AdditionalProperties,
  {b1f6059b-7cd2-4eff-99f7-83692397c954}, !- Handle
  {5c07e17f-ac8b-4f66-ba8b-1609e2e2e43e}, !- Object Name
  Building ID,                            !- Feature Name 1
  Integer,                                !- Feature Data Type 1
  41979,                                  !- Feature Value 1
  num_occupants,                          !- Feature Name 2
  Integer,                                !- Feature Data Type 2
  2,                                      !- Feature Value 2
  Schedules Path,                         !- Feature Name 3
  String,                                 !- Feature Data Type 3
  /var/simdata/openstudio/run/schedules.csv, !- Feature Value 3
  num_units,                              !- Feature Name 4
  Integer,                                !- Feature Data Type 4
  24,                                     !- Feature Value 4
  has_rear_units,                         !- Feature Name 5
  Boolean,                                !- Feature Data Type 5
  true,                                   !- Feature Value 5
  num_floors,                             !- Feature Name 6
  Integer,                                !- Feature Data Type 6
  3,                                      !- Feature Value 6
  horz_location,                          !- Feature Name 7
  String,                                 !- Feature Data Type 7
  Left,                                   !- Feature Value 7
  level,                                  !- Feature Name 8
  String,                                 !- Feature Data Type 8
  Bottom,                                 !- Feature Value 8
  found_type,                             !- Feature Name 9
  String,                                 !- Feature Data Type 9
  crawlspace,                             !- Feature Value 9
  corridor_width,                         !- Feature Name 10
  Double,                                 !- Feature Data Type 10
  3.048,                                  !- Feature Value 10
  corridor_position,                      !- Feature Name 11
  String,                                 !- Feature Data Type 11
  Double-Loaded Interior,                 !- Feature Value 11
  has_water_heater_flue,                  !- Feature Name 12
  Boolean,                                !- Feature Data Type 12
  false,                                  !- Feature Value 12
  has_hvac_flue,                          !- Feature Name 13
  Boolean,                                !- Feature Data Type 13
  true,                                   !- Feature Value 13
  has_fireplace_chimney,                  !- Feature Name 14
  Boolean,                                !- Feature Data Type 14
  false;                                  !- Feature Value 14

OS:ClimateZones,
  {bf8c57cb-a054-4043-834e-5299afddba0a}, !- Handle
  Building America,                       !- Climate Zone Institution Name 1
  ,                                       !- Climate Zone Document Name 1
  0,                                      !- Climate Zone Document Year 1
  Hot-Dry,                                !- Climate Zone Value 1
  ASHRAE,                                 !- Climate Zone Institution Name 2
  ANSI/ASHRAE Standard 169,               !- Climate Zone Document Name 2
  2006,                                   !- Climate Zone Document Year 2
  ,                                       !- Climate Zone Value 2
  CEC,                                    !- Climate Zone Institution Name 3
  California Climate Zone Descriptions,   !- Climate Zone Document Name 3
  1995,                                   !- Climate Zone Document Year 3
  ;                                       !- Climate Zone Value 3

OS:Site:WaterMainsTemperature,
  {2620c554-3657-44fe-8ba5-580bf1c76a53}, !- Handle
  Correlation,                            !- Calculation Method
  ,                                       !- Temperature Schedule Name
  16.8229680365297,                       !- Annual Average Outdoor Air Temperature {C}
  7.03978494623657;                       !- Maximum Difference In Monthly Average Outdoor Air Temperatures {deltaC}

OS:RunPeriodControl:DaylightSavingTime,
  {f98a09ee-019c-455f-8ba4-56f814e9cdb9}, !- Handle
  3/10,                                   !- Start Date
  11/3;                                   !- End Date

OS:Site:GroundTemperature:Deep,
  {e1b4eb73-b2e0-4340-90d9-1acbafc2758a}, !- Handle
  16.8229680365297,                       !- January Deep Ground Temperature {C}
  16.8229680365297,                       !- February Deep Ground Temperature {C}
  16.8229680365297,                       !- March Deep Ground Temperature {C}
  16.8229680365297,                       !- April Deep Ground Temperature {C}
  16.8229680365297,                       !- May Deep Ground Temperature {C}
  16.8229680365297,                       !- June Deep Ground Temperature {C}
  16.8229680365297,                       !- July Deep Ground Temperature {C}
  16.8229680365297,                       !- August Deep Ground Temperature {C}
  16.8229680365297,                       !- September Deep Ground Temperature {C}
  16.8229680365297,                       !- October Deep Ground Temperature {C}
  16.8229680365297,                       !- November Deep Ground Temperature {C}
  16.8229680365297;                       !- December Deep Ground Temperature {C}

OS:ThermalZone,
  {3e2071eb-9daa-4ac8-ac79-eb1579ee9f6a}, !- Handle
  living zone,                            !- Name
  ,                                       !- Multiplier
  ,                                       !- Ceiling Height {m}
  ,                                       !- Volume {m3}
  ,                                       !- Floor Area {m2}
  ,                                       !- Zone Inside Convection Algorithm
  ,                                       !- Zone Outside Convection Algorithm
  ,                                       !- Zone Conditioning Equipment List Name
  {7709bfed-05e7-4421-b404-9240a81b897f}, !- Zone Air Inlet Port List
  {e1402c82-0fdb-47c0-80fb-b86190ec8bd2}, !- Zone Air Exhaust Port List
  {8009f4f9-4560-4154-b025-f7497f3714a9}, !- Zone Air Node Name
  {474324d3-5b62-491d-8075-99b0ddc4c62d}, !- Zone Return Air Port List
  ,                                       !- Primary Daylighting Control Name
  ,                                       !- Fraction of Zone Controlled by Primary Daylighting Control
  ,                                       !- Secondary Daylighting Control Name
  ,                                       !- Fraction of Zone Controlled by Secondary Daylighting Control
  ,                                       !- Illuminance Map Name
  ,                                       !- Group Rendering Name
  {1226dd07-379a-428f-b032-d06e7e48dcd9}, !- Thermostat Name
  No;                                     !- Use Ideal Air Loads

OS:Node,
  {56545abf-3eb1-4c1a-be26-fcda6b66d91f}, !- Handle
  Node 1,                                 !- Name
  {8009f4f9-4560-4154-b025-f7497f3714a9}, !- Inlet Port
  ;                                       !- Outlet Port

OS:Connection,
  {8009f4f9-4560-4154-b025-f7497f3714a9}, !- Handle
  {3e2071eb-9daa-4ac8-ac79-eb1579ee9f6a}, !- Source Object
  11,                                     !- Outlet Port
  {56545abf-3eb1-4c1a-be26-fcda6b66d91f}, !- Target Object
  2;                                      !- Inlet Port

OS:PortList,
  {7709bfed-05e7-4421-b404-9240a81b897f}, !- Handle
  {3e2071eb-9daa-4ac8-ac79-eb1579ee9f6a}, !- HVAC Component
  {71c9d4bc-a47c-44fb-94cc-a29d5c3a6b5a}; !- Port 1

OS:PortList,
  {e1402c82-0fdb-47c0-80fb-b86190ec8bd2}, !- Handle
  {3e2071eb-9daa-4ac8-ac79-eb1579ee9f6a}, !- HVAC Component
  {86465b3d-4007-4f05-9ca0-3baa15c076ff}; !- Port 1

OS:PortList,
  {474324d3-5b62-491d-8075-99b0ddc4c62d}, !- Handle
  {3e2071eb-9daa-4ac8-ac79-eb1579ee9f6a}; !- HVAC Component

OS:Sizing:Zone,
  {41e6f2bd-aabf-42cb-b2c2-e8d7dfeb64da}, !- Handle
  {3e2071eb-9daa-4ac8-ac79-eb1579ee9f6a}, !- Zone or ZoneList Name
  SupplyAirTemperature,                   !- Zone Cooling Design Supply Air Temperature Input Method
  12.7777777777778,                       !- Zone Cooling Design Supply Air Temperature {C}
  11.11,                                  !- Zone Cooling Design Supply Air Temperature Difference {deltaC}
  SupplyAirTemperature,                   !- Zone Heating Design Supply Air Temperature Input Method
  40.0000000000001,                       !- Zone Heating Design Supply Air Temperature {C}
  11.11,                                  !- Zone Heating Design Supply Air Temperature Difference {deltaC}
  0.0085,                                 !- Zone Cooling Design Supply Air Humidity Ratio {kg-H2O/kg-air}
  0.008,                                  !- Zone Heating Design Supply Air Humidity Ratio {kg-H2O/kg-air}
  ,                                       !- Zone Heating Sizing Factor
  ,                                       !- Zone Cooling Sizing Factor
  DesignDay,                              !- Cooling Design Air Flow Method
  ,                                       !- Cooling Design Air Flow Rate {m3/s}
  ,                                       !- Cooling Minimum Air Flow per Zone Floor Area {m3/s-m2}
  ,                                       !- Cooling Minimum Air Flow {m3/s}
  ,                                       !- Cooling Minimum Air Flow Fraction
  DesignDay,                              !- Heating Design Air Flow Method
  ,                                       !- Heating Design Air Flow Rate {m3/s}
  ,                                       !- Heating Maximum Air Flow per Zone Floor Area {m3/s-m2}
  ,                                       !- Heating Maximum Air Flow {m3/s}
  ,                                       !- Heating Maximum Air Flow Fraction
  No,                                     !- Account for Dedicated Outdoor Air System
  NeutralSupplyAir,                       !- Dedicated Outdoor Air System Control Strategy
  autosize,                               !- Dedicated Outdoor Air Low Setpoint Temperature for Design {C}
  autosize;                               !- Dedicated Outdoor Air High Setpoint Temperature for Design {C}

OS:ZoneHVAC:EquipmentList,
  {f9886bd8-79bd-44cb-ae70-bb975e334190}, !- Handle
  Zone HVAC Equipment List 1,             !- Name
  {3e2071eb-9daa-4ac8-ac79-eb1579ee9f6a}, !- Thermal Zone
  ,                                       !- Load Distribution Scheme
  {0118f5a0-271e-4c54-9934-afe09b31049a}, !- Zone Equipment 1
  1,                                      !- Zone Equipment Cooling Sequence 1
  1,                                      !- Zone Equipment Heating or No-Load Sequence 1
  ,                                       !- Zone Equipment Sequential Cooling Fraction Schedule Name 1
  ;                                       !- Zone Equipment Sequential Heating Fraction Schedule Name 1

OS:Space,
  {9d53c3d1-2af2-47d0-8e59-b8a574d46f8f}, !- Handle
  living space,                           !- Name
  {b393a6f3-1e90-4421-82a7-b9385b136ec8}, !- Space Type Name
  ,                                       !- Default Construction Set Name
  ,                                       !- Default Schedule Set Name
  ,                                       !- Direction of Relative North {deg}
  ,                                       !- X Origin {m}
  ,                                       !- Y Origin {m}
  ,                                       !- Z Origin {m}
  ,                                       !- Building Story Name
  {3e2071eb-9daa-4ac8-ac79-eb1579ee9f6a}, !- Thermal Zone Name
  ,                                       !- Part of Total Floor Area
  ,                                       !- Design Specification Outdoor Air Object Name
  {3ace2bf0-bbf2-4710-abb1-6ea8c8e80d80}; !- Building Unit Name

OS:Surface,
  {46c10eea-9949-48d8-b2ea-ff4556a041fb}, !- Handle
  Surface 1,                              !- Name
  Floor,                                  !- Surface Type
  {6b2e7c28-b093-4e35-aa85-a0bf2ffe8835}, !- Construction Name
  {9d53c3d1-2af2-47d0-8e59-b8a574d46f8f}, !- Space Name
  Surface,                                !- Outside Boundary Condition
  {077e81b5-b607-48bf-857e-24c03cf809eb}, !- Outside Boundary Condition Object
  NoSun,                                  !- Sun Exposure
  NoWind,                                 !- Wind Exposure
  ,                                       !- View Factor to Ground
  ,                                       !- Number of Vertices
  0, -13.7950203746134, 0,                !- X,Y,Z Vertex 1 {m}
  0, 0, 0,                                !- X,Y,Z Vertex 2 {m}
  7.66390020811858, 0, 0,                 !- X,Y,Z Vertex 3 {m}
  7.66390020811858, -13.7950203746134, 0; !- X,Y,Z Vertex 4 {m}

OS:Surface,
  {14e181f2-0f4c-4aa1-a425-58cefc380cd8}, !- Handle
  Surface 2,                              !- Name
  Wall,                                   !- Surface Type
  {b26352c7-787d-4d1f-b560-62e99f698a5f}, !- Construction Name
  {9d53c3d1-2af2-47d0-8e59-b8a574d46f8f}, !- Space Name
  Outdoors,                               !- Outside Boundary Condition
  ,                                       !- Outside Boundary Condition Object
  SunExposed,                             !- Sun Exposure
  WindExposed,                            !- Wind Exposure
  ,                                       !- View Factor to Ground
  ,                                       !- Number of Vertices
  0, 0, 2.4384,                           !- X,Y,Z Vertex 1 {m}
  0, 0, 0,                                !- X,Y,Z Vertex 2 {m}
  0, -13.7950203746134, 0,                !- X,Y,Z Vertex 3 {m}
  0, -13.7950203746134, 2.4384;           !- X,Y,Z Vertex 4 {m}

OS:Surface,
  {e192d2ea-eeca-467a-addc-baa20b50ed50}, !- Handle
  Surface 3,                              !- Name
  Wall,                                   !- Surface Type
  {0f569c09-e8eb-48df-8c72-3f8e7aa33248}, !- Construction Name
  {9d53c3d1-2af2-47d0-8e59-b8a574d46f8f}, !- Space Name
  Adiabatic,                              !- Outside Boundary Condition
  ,                                       !- Outside Boundary Condition Object
  NoSun,                                  !- Sun Exposure
  NoWind,                                 !- Wind Exposure
  ,                                       !- View Factor to Ground
  ,                                       !- Number of Vertices
  7.66390020811858, 0, 2.4384,            !- X,Y,Z Vertex 1 {m}
  7.66390020811858, 0, 0,                 !- X,Y,Z Vertex 2 {m}
  0, 0, 0,                                !- X,Y,Z Vertex 3 {m}
  0, 0, 2.4384;                           !- X,Y,Z Vertex 4 {m}

OS:Surface,
  {a57ab792-8320-4c7d-8db7-73fecfd06e5e}, !- Handle
  Surface 4,                              !- Name
  Wall,                                   !- Surface Type
  {0f569c09-e8eb-48df-8c72-3f8e7aa33248}, !- Construction Name
  {9d53c3d1-2af2-47d0-8e59-b8a574d46f8f}, !- Space Name
  Adiabatic,                              !- Outside Boundary Condition
  ,                                       !- Outside Boundary Condition Object
  NoSun,                                  !- Sun Exposure
  NoWind,                                 !- Wind Exposure
  ,                                       !- View Factor to Ground
  ,                                       !- Number of Vertices
  7.66390020811858, -13.7950203746134, 2.4384, !- X,Y,Z Vertex 1 {m}
  7.66390020811858, -13.7950203746134, 0, !- X,Y,Z Vertex 2 {m}
  7.66390020811858, 0, 0,                 !- X,Y,Z Vertex 3 {m}
  7.66390020811858, 0, 2.4384;            !- X,Y,Z Vertex 4 {m}

OS:Surface,
  {9b3235f0-9213-41ac-9860-75d36ad6a653}, !- Handle
  Surface 5,                              !- Name
  Wall,                                   !- Surface Type
  {b26352c7-787d-4d1f-b560-62e99f698a5f}, !- Construction Name
  {9d53c3d1-2af2-47d0-8e59-b8a574d46f8f}, !- Space Name
  Outdoors,                               !- Outside Boundary Condition
  ,                                       !- Outside Boundary Condition Object
  SunExposed,                             !- Sun Exposure
  WindExposed,                            !- Wind Exposure
  ,                                       !- View Factor to Ground
  ,                                       !- Number of Vertices
  0, -13.7950203746134, 2.4384,           !- X,Y,Z Vertex 1 {m}
  0, -13.7950203746134, 0,                !- X,Y,Z Vertex 2 {m}
  7.66390020811858, -13.7950203746134, 0, !- X,Y,Z Vertex 3 {m}
  7.66390020811858, -13.7950203746134, 2.4384; !- X,Y,Z Vertex 4 {m}

OS:Surface,
  {21dd9a68-d8cc-4bc2-93e3-3fdaf78f104a}, !- Handle
  Surface 6,                              !- Name
  RoofCeiling,                            !- Surface Type
  {166df4ef-3ed2-40c3-8e4a-aa2c41fda595}, !- Construction Name
  {9d53c3d1-2af2-47d0-8e59-b8a574d46f8f}, !- Space Name
  Adiabatic,                              !- Outside Boundary Condition
  ,                                       !- Outside Boundary Condition Object
  NoSun,                                  !- Sun Exposure
  NoWind,                                 !- Wind Exposure
  ,                                       !- View Factor to Ground
  ,                                       !- Number of Vertices
  7.66390020811858, -13.7950203746134, 2.4384, !- X,Y,Z Vertex 1 {m}
  7.66390020811858, 0, 2.4384,            !- X,Y,Z Vertex 2 {m}
  0, 0, 2.4384,                           !- X,Y,Z Vertex 3 {m}
  0, -13.7950203746134, 2.4384;           !- X,Y,Z Vertex 4 {m}

OS:SpaceType,
  {b393a6f3-1e90-4421-82a7-b9385b136ec8}, !- Handle
  Space Type 1,                           !- Name
  ,                                       !- Default Construction Set Name
  ,                                       !- Default Schedule Set Name
  ,                                       !- Group Rendering Name
  ,                                       !- Design Specification Outdoor Air Object Name
  ,                                       !- Standards Template
  ,                                       !- Standards Building Type
  living;                                 !- Standards Space Type

OS:ThermalZone,
  {cdedae14-37dc-464a-8da9-83b64532a5ad}, !- Handle
  corridor zone,                          !- Name
  ,                                       !- Multiplier
  ,                                       !- Ceiling Height {m}
  ,                                       !- Volume {m3}
  ,                                       !- Floor Area {m2}
  ,                                       !- Zone Inside Convection Algorithm
  ,                                       !- Zone Outside Convection Algorithm
  ,                                       !- Zone Conditioning Equipment List Name
  {c50e4bef-75d7-4d07-ae6b-98529441f3d3}, !- Zone Air Inlet Port List
  {885e61cb-06c4-4968-aad1-3b18cc4e0ad5}, !- Zone Air Exhaust Port List
  {9b76b8ea-d0ff-4ddc-9026-d691369ff912}, !- Zone Air Node Name
  {aff9c99a-3a4f-4f9f-87b7-db187d364eed}, !- Zone Return Air Port List
  ,                                       !- Primary Daylighting Control Name
  ,                                       !- Fraction of Zone Controlled by Primary Daylighting Control
  ,                                       !- Secondary Daylighting Control Name
  ,                                       !- Fraction of Zone Controlled by Secondary Daylighting Control
  ,                                       !- Illuminance Map Name
  ,                                       !- Group Rendering Name
  ,                                       !- Thermostat Name
  No;                                     !- Use Ideal Air Loads

OS:Node,
  {f7b7c131-c8be-4563-9e69-94997ad82d4e}, !- Handle
  Node 2,                                 !- Name
  {9b76b8ea-d0ff-4ddc-9026-d691369ff912}, !- Inlet Port
  ;                                       !- Outlet Port

OS:Connection,
  {9b76b8ea-d0ff-4ddc-9026-d691369ff912}, !- Handle
  {cdedae14-37dc-464a-8da9-83b64532a5ad}, !- Source Object
  11,                                     !- Outlet Port
  {f7b7c131-c8be-4563-9e69-94997ad82d4e}, !- Target Object
  2;                                      !- Inlet Port

OS:PortList,
  {c50e4bef-75d7-4d07-ae6b-98529441f3d3}, !- Handle
  {cdedae14-37dc-464a-8da9-83b64532a5ad}; !- HVAC Component

OS:PortList,
  {885e61cb-06c4-4968-aad1-3b18cc4e0ad5}, !- Handle
  {cdedae14-37dc-464a-8da9-83b64532a5ad}; !- HVAC Component

OS:PortList,
  {aff9c99a-3a4f-4f9f-87b7-db187d364eed}, !- Handle
  {cdedae14-37dc-464a-8da9-83b64532a5ad}; !- HVAC Component

OS:Sizing:Zone,
  {4e1edb22-8deb-4c76-8ad1-d595833e2045}, !- Handle
  {cdedae14-37dc-464a-8da9-83b64532a5ad}, !- Zone or ZoneList Name
  SupplyAirTemperature,                   !- Zone Cooling Design Supply Air Temperature Input Method
  14,                                     !- Zone Cooling Design Supply Air Temperature {C}
  11.11,                                  !- Zone Cooling Design Supply Air Temperature Difference {deltaC}
  SupplyAirTemperature,                   !- Zone Heating Design Supply Air Temperature Input Method
  40,                                     !- Zone Heating Design Supply Air Temperature {C}
  11.11,                                  !- Zone Heating Design Supply Air Temperature Difference {deltaC}
  0.0085,                                 !- Zone Cooling Design Supply Air Humidity Ratio {kg-H2O/kg-air}
  0.008,                                  !- Zone Heating Design Supply Air Humidity Ratio {kg-H2O/kg-air}
  ,                                       !- Zone Heating Sizing Factor
  ,                                       !- Zone Cooling Sizing Factor
  DesignDay,                              !- Cooling Design Air Flow Method
  ,                                       !- Cooling Design Air Flow Rate {m3/s}
  ,                                       !- Cooling Minimum Air Flow per Zone Floor Area {m3/s-m2}
  ,                                       !- Cooling Minimum Air Flow {m3/s}
  ,                                       !- Cooling Minimum Air Flow Fraction
  DesignDay,                              !- Heating Design Air Flow Method
  ,                                       !- Heating Design Air Flow Rate {m3/s}
  ,                                       !- Heating Maximum Air Flow per Zone Floor Area {m3/s-m2}
  ,                                       !- Heating Maximum Air Flow {m3/s}
  ,                                       !- Heating Maximum Air Flow Fraction
  No,                                     !- Account for Dedicated Outdoor Air System
  NeutralSupplyAir,                       !- Dedicated Outdoor Air System Control Strategy
  autosize,                               !- Dedicated Outdoor Air Low Setpoint Temperature for Design {C}
  autosize;                               !- Dedicated Outdoor Air High Setpoint Temperature for Design {C}

OS:ZoneHVAC:EquipmentList,
  {2b938027-e897-4e7d-87d4-eec866e6a5af}, !- Handle
  Zone HVAC Equipment List 2,             !- Name
  {cdedae14-37dc-464a-8da9-83b64532a5ad}; !- Thermal Zone

OS:Space,
  {98b9d970-1ae1-42cd-8fc8-0bf573c45053}, !- Handle
  corridor space,                         !- Name
  {81313a3a-ccd3-46b8-ab1d-73e35c8c95ef}, !- Space Type Name
  ,                                       !- Default Construction Set Name
  ,                                       !- Default Schedule Set Name
  ,                                       !- Direction of Relative North {deg}
  ,                                       !- X Origin {m}
  ,                                       !- Y Origin {m}
  ,                                       !- Z Origin {m}
  ,                                       !- Building Story Name
  {cdedae14-37dc-464a-8da9-83b64532a5ad}; !- Thermal Zone Name

OS:Surface,
  {1ac9c0a6-d159-4d4f-a2bb-e7afad99a9e6}, !- Handle
  Surface 7,                              !- Name
  Floor,                                  !- Surface Type
  {788e1e14-2af2-4b90-9041-e17eb987e12b}, !- Construction Name
  {98b9d970-1ae1-42cd-8fc8-0bf573c45053}, !- Space Name
  Surface,                                !- Outside Boundary Condition