
OS:Version,
  {cd7faef1-ad8a-4289-9251-1487a61c48a5}, !- Handle
  3.3.0;                                  !- Version Identifier

OS:Site,
  {54bac9cc-0397-4fcf-a82f-248d61b6e3c9}, !- Handle
  Denver-Aurora-Buckley AFB,              !- Name
  39.72,                                  !- Latitude {deg}
  -104.75,                                !- Longitude {deg}
  -7,                                     !- Time Zone {hr}
  1726,                                   !- Elevation {m}
  Suburbs;                                !- Terrain

OS:SimulationControl,
  {184e2b72-cede-4fb9-836c-1db88dc2affc}, !- Handle
  Yes,                                    !- Do Zone Sizing Calculation
  Yes,                                    !- Do System Sizing Calculation
  No,                                     !- Do Plant Sizing Calculation
  Yes,                                    !- Run Simulation for Sizing Periods
  Yes,                                    !- Run Simulation for Weather File Run Periods
  0.04,                                   !- Loads Convergence Tolerance Value {W}
  0.4,                                    !- Temperature Convergence Tolerance Value {deltaC}
  FullExterior,                           !- Solar Distribution
  25,                                     !- Maximum Number of Warmup Days
  6,                                      !- Minimum Number of Warmup Days
  No;                                     !- Do HVAC Sizing Simulation for Sizing Periods

OS:Material,
  {34287829-b0df-4934-8dfc-e3fc7cd9ff6f}, !- Handle
  Carpet_n_pad,                           !- Name
  MediumSmooth,                           !- Roughness
  0.0254000514892096,                     !- Thickness {m}
  0.0601314018580031,                     !- Conductivity {W/m-K}
  32.03690584178,                         !- Density {kg/m3}
  836.800006332062,                       !- Specific Heat {J/kg-K}
  0.9,                                    !- Thermal Absorptance
  0.7,                                    !- Solar Absorptance
  0.7;                                    !- Visible Absorptance

OS:Building,
  {9996a6f6-fbfb-4de2-9b56-45d3366e4027}, !- Handle
  US+MF+CZ5B+hp+crawlspace+IECC_2021,     !- Name
  ,                                       !- Building Sector Type
  0,                                      !- North Axis {deg}
  ,                                       !- Nominal Floor to Floor Height {m}
  ,                                       !- Space Type Name
  ,                                       !- Default Construction Set Name
  ;                                       !- Default Schedule Set Name

OS:Surface,
  {cae835dc-eb3f-4ef8-9f8a-25d62b1cc0ee}, !- Handle
  ceiling_unit2_FrontRow_BottomFloor,     !- Name
  RoofCeiling,                            !- Surface Type
  {bf13c2e3-0916-48e9-a4d8-8b947847f240}, !- Construction Name
  {67892eba-5200-42c0-bd7f-e5da3c727950}, !- Space Name
  Surface,                                !- Outside Boundary Condition
  {3ed1a2f2-b20d-4083-b90c-85a60937ba53}, !- Outside Boundary Condition Object
  NoSun,                                  !- Sun Exposure
  NoWind,                                 !- Wind Exposure
  0,                                      !- View Factor to Ground
  ,                                       !- Number of Vertices
  24.35792581863, 0, 2.743902439024,      !- X,Y,Z Vertex 1 {m}
  24.35792581863, 9.15711496941, 2.743902439024, !- X,Y,Z Vertex 2 {m}
  12.178962909315, 9.15711496941, 2.743902439024, !- X,Y,Z Vertex 3 {m}
  12.178962909315, 0, 2.743902439024;     !- X,Y,Z Vertex 4 {m}

OS:Construction,
  {bf13c2e3-0916-48e9-a4d8-8b947847f240}, !- Handle
  ceiling-floor-layer,                    !- Name
  {506392da-0f18-4fbf-a510-2a27a5741cac}, !- Surface Rendering Name
  {bcc58d71-9831-4ba9-ba9e-8f728466ef96}; !- Layer 1

OS:Material,
  {bcc58d71-9831-4ba9-ba9e-8f728466ef96}, !- Handle
  Lumber_2x4,                             !- Name
  Rough,                                  !- Roughness
  0.0890016,                              !- Thickness {m}
  0.1154577,                              !- Conductivity {W/m-K}
  512.64,                                 !- Density {kg/m3}
  767.58,                                 !- Specific Heat {J/kg-K}
  0.9,                                    !- Thermal Absorptance
  0.7,                                    !- Solar Absorptance
  0.7;                                    !- Visible Absorptance

OS:ThermalZone,
  {11ea7b85-23ef-48e3-8fb1-708a0a6878c7}, !- Handle
  living_unit2_FrontRow_BottomFloor,      !- Name
  1,                                      !- Multiplier
  ,                                       !- Ceiling Height {m}
  ,                                       !- Volume {m3}
  ,                                       !- Floor Area {m2}
  ,                                       !- Zone Inside Convection Algorithm
  ,                                       !- Zone Outside Convection Algorithm
  ,                                       !- Zone Conditioning Equipment List Name
  {56afb3ae-554a-4fb4-aad6-6ae5e41a6fed}, !- Zone Air Inlet Port List
  {5a887dac-319c-4701-b7a5-53936bfacbc2}, !- Zone Air Exhaust Port List
  {d0285336-d64f-4bdd-bb42-a3df512f5895}, !- Zone Air Node Name
  {f6a6c21f-a46d-4980-9515-b34db7432b88}, !- Zone Return Air Port List
  ,                                       !- Primary Daylighting Control Name
  ,                                       !- Fraction of Zone Controlled by Primary Daylighting Control
  ,                                       !- Secondary Daylighting Control Name
  ,                                       !- Fraction of Zone Controlled by Secondary Daylighting Control
  ,                                       !- Illuminance Map Name
  {980ccaac-bf6e-4c77-8728-c89fe1e0ff4b}, !- Group Rendering Name
  {fcd4f77d-ac04-4dc3-8516-a502c807ecd2}, !- Thermostat Name
  No;                                     !- Use Ideal Air Loads

OS:Node,
  {d6d2bc50-5b84-40d5-937a-1d1c816ed888}, !- Handle
  Node 1,                                 !- Name
  {d0285336-d64f-4bdd-bb42-a3df512f5895}, !- Inlet Port
  ;                                       !- Outlet Port

OS:Connection,
  {d0285336-d64f-4bdd-bb42-a3df512f5895}, !- Handle
  {11ea7b85-23ef-48e3-8fb1-708a0a6878c7}, !- Source Object
  11,                                     !- Outlet Port
  {d6d2bc50-5b84-40d5-937a-1d1c816ed888}, !- Target Object
  2;                                      !- Inlet Port

OS:PortList,
  {56afb3ae-554a-4fb4-aad6-6ae5e41a6fed}, !- Handle
  {11ea7b85-23ef-48e3-8fb1-708a0a6878c7}; !- HVAC Component

OS:PortList,
  {5a887dac-319c-4701-b7a5-53936bfacbc2}, !- Handle
  {11ea7b85-23ef-48e3-8fb1-708a0a6878c7}; !- HVAC Component

OS:PortList,
  {f6a6c21f-a46d-4980-9515-b34db7432b88}, !- Handle
  {11ea7b85-23ef-48e3-8fb1-708a0a6878c7}; !- HVAC Component

OS:Sizing:Zone,
  {52517dbc-f658-4515-ad77-a803e41a9fc3}, !- Handle
  {11ea7b85-23ef-48e3-8fb1-708a0a6878c7}, !- Zone or ZoneList Name
  SupplyAirTemperature,                   !- Zone Cooling Design Supply Air Temperature Input Method
  12,                                     !- Zone Cooling Design Supply Air Temperature {C}
  11.11,                                  !- Zone Cooling Design Supply Air Temperature Difference {deltaC}
  SupplyAirTemperature,                   !- Zone Heating Design Supply Air Temperature Input Method
  50,                                     !- Zone Heating Design Supply Air Temperature {C}
  11.11,                                  !- Zone Heating Design Supply Air Temperature Difference {deltaC}
  0.0085,                                 !- Zone Cooling Design Supply Air Humidity Ratio {kg-H2O/kg-air}
  0.008,                                  !- Zone Heating Design Supply Air Humidity Ratio {kg-H2O/kg-air}
  ,                                       !- Zone Heating Sizing Factor
  ,                                       !- Zone Cooling Sizing Factor
  DesignDay,                              !- Cooling Design Air Flow Method
  ,                                       !- Cooling Design Air Flow Rate {m3/s}
  0.000762,                               !- Cooling Minimum Air Flow per Zone Floor Area {m3/s-m2}
  ,                                       !- Cooling Minimum Air Flow {m3/s}
  ,                                       !- Cooling Minimum Air Flow Fraction
  DesignDay,                              !- Heating Design Air Flow Method
  ,                                       !- Heating Design Air Flow Rate {m3/s}
  0.002032,                               !- Heating Maximum Air Flow per Zone Floor Area {m3/s-m2}
  0.1415762,                              !- Heating Maximum Air Flow {m3/s}
  0.3,                                    !- Heating Maximum Air Flow Fraction
  No,                                     !- Account for Dedicated Outdoor Air System
  NeutralSupplyAir,                       !- Dedicated Outdoor Air System Control Strategy
  autosize,                               !- Dedicated Outdoor Air Low Setpoint Temperature for Design {C}
  autosize;                               !- Dedicated Outdoor Air High Setpoint Temperature for Design {C}

OS:ZoneHVAC:EquipmentList,
  {b96f5c7a-5239-4c6b-a845-bd81415c55c1}, !- Handle
  Zone HVAC Equipment List 1,             !- Name
  {11ea7b85-23ef-48e3-8fb1-708a0a6878c7}; !- Thermal Zone

OS:Space,
  {67892eba-5200-42c0-bd7f-e5da3c727950}, !- Handle
  living_unit2_FrontRow_BottomFloor Space, !- Name
  ,                                       !- Space Type Name
  ,                                       !- Default Construction Set Name
  ,                                       !- Default Schedule Set Name
  0,                                      !- Direction of Relative North {deg}
  0,                                      !- X Origin {m}
  0,                                      !- Y Origin {m}
  0,                                      !- Z Origin {m}
  ,                                       !- Building Story Name
  {11ea7b85-23ef-48e3-8fb1-708a0a6878c7}, !- Thermal Zone Name
  ,                                       !- Part of Total Floor Area
  {15b1c183-34ec-4eeb-94ab-bbacbb55cab2}; !- Design Specification Outdoor Air Object Name

OS:ThermostatSetpoint:DualSetpoint,
  {fcd4f77d-ac04-4dc3-8516-a502c807ecd2}, !- Handle
  thermostat_living Dual SP Control,      !- Name
  {3fbb7558-0f5a-49d1-b611-cf5ccc9df03b}, !- Heating Setpoint Temperature Schedule Name
  {a5119882-9188-42e5-a5b4-950f735e2ae2}; !- Cooling Setpoint Temperature Schedule Name

OS:Schedule:Compact,
  {3fbb7558-0f5a-49d1-b611-cf5ccc9df03b}, !- Handle
  heating_sch,                            !- Name
  {164d3783-f29a-4b52-8581-ca41a5e4e22b}, !- Schedule Type Limits Name
  Through: 12/31,                         !- Field 1
  AllDays,                                !- Field 2
  Until: 24:00,                           !- Field 3
  22.2222222222223;                       !- Field 4

OS:ScheduleTypeLimits,
  {164d3783-f29a-4b52-8581-ca41a5e4e22b}, !- Handle
  Temperature,                            !- Name
  -60,                                    !- Lower Limit Value
  200,                                    !- Upper Limit Value
  Continuous,                             !- Numeric Type
  Temperature;                            !- Unit Type

OS:Schedule:Compact,
  {a5119882-9188-42e5-a5b4-950f735e2ae2}, !- Handle
  cooling_sch,                            !- Name
  {164d3783-f29a-4b52-8581-ca41a5e4e22b}, !- Schedule Type Limits Name
  Through: 12/31,                         !- Field 1
  AllDays,                                !- Field 2
  Until: 24:00,                           !- Field 3
  23.888888888889;                        !- Field 4

OS:Timestep,
  {97f36606-54ea-418b-84fb-9eb5278916ff}, !- Handle
  6;                                      !- Number of Timesteps per Hour

OS:SizingPeriod:DesignDay,
  {2dc7a8dd-7fd2-4b09-80e6-7c3c66cc6024}, !- Handle
  Denver-Aurora-Buckley.AFB_CO_USA Ann Htg 99.6% Condns DB, !- Name
  -17.9,                                  !- Maximum Dry-Bulb Temperature {C}
  0,                                      !- Daily Dry-Bulb Temperature Range {deltaC}
  82237,                                  !- Barometric Pressure {Pa}
  2.5,                                    !- Wind Speed {m/s}
  180,                                    !- Wind Direction {deg}
  0,                                      !- Sky Clearness
  No,                                     !- Rain Indicator
  No,                                     !- Snow Indicator
  21,                                     !- Day of Month
  12,                                     !- Month
  WinterDesignDay,                        !- Day Type
  No,                                     !- Daylight Saving Time Indicator
  Wetbulb,                                !- Humidity Condition Type
  ,                                       !- Humidity Condition Day Schedule Name
  -17.9,                                  !- Wetbulb or DewPoint at Maximum Dry-Bulb {C}
  ,                                       !- Humidity Ratio at Maximum Dry-Bulb {kgWater/kgDryAir}
  ,                                       !- Enthalpy at Maximum Dry-Bulb {J/kg}
  DefaultMultipliers,                     !- Dry-Bulb Temperature Range Modifier Type
  ,                                       !- Dry-Bulb Temperature Range Modifier Day Schedule Name
  ASHRAEClearSky;                         !- Solar Model Indicator

OS:SizingPeriod:DesignDay,
  {e61c8406-d6e8-43a0-97ad-08913d50341d}, !- Handle
  Denver-Aurora-Buckley.AFB_CO_USA Ann Clg .4% Condns DB=>MWB, !- Name
  33.9,                                   !- Maximum Dry-Bulb Temperature {C}
  14.8,                                   !- Daily Dry-Bulb Temperature Range {deltaC}
  82237,                                  !- Barometric Pressure {Pa}
  3.6,                                    !- Wind Speed {m/s}
  30,                                     !- Wind Direction {deg}
  ,                                       !- Sky Clearness
  No,                                     !- Rain Indicator
  No,                                     !- Snow Indicator
  21,                                     !- Day of Month
  7,                                      !- Month
  SummerDesignDay,                        !- Day Type
  No,                                     !- Daylight Saving Time Indicator
  Wetbulb,                                !- Humidity Condition Type
  ,                                       !- Humidity Condition Day Schedule Name
  15,                                     !- Wetbulb or DewPoint at Maximum Dry-Bulb {C}
  ,                                       !- Humidity Ratio at Maximum Dry-Bulb {kgWater/kgDryAir}
  ,                                       !- Enthalpy at Maximum Dry-Bulb {J/kg}
  DefaultMultipliers,                     !- Dry-Bulb Temperature Range Modifier Type
  ,                                       !- Dry-Bulb Temperature Range Modifier Day Schedule Name
  ASHRAETau,                              !- Solar Model Indicator
  ,                                       !- Beam Solar Day Schedule Name
  ,                                       !- Diffuse Solar Day Schedule Name
  0.423,                                  !- ASHRAE Clear Sky Optical Depth for Beam Irradiance {dimensionless}
  2.02;                                   !- ASHRAE Clear Sky Optical Depth for Diffuse Irradiance {dimensionless}

OS:RunPeriod,
  {b524846e-e155-4ee5-9b5c-412e613d9830}, !- Handle
  annual,                                 !- Name
  1,                                      !- Begin Month
  1,                                      !- Begin Day of Month
  12,                                     !- End Month
  31,                                     !- End Day of Month
  Yes,                                    !- Use Weather File Holidays and Special Days
  Yes,                                    !- Use Weather File Daylight Saving Period
  No,                                     !- Apply Weekend Holiday Rule
  Yes,                                    !- Use Weather File Rain Indicators
  Yes,                                    !- Use Weather File Snow Indicators
  ;                                       !- Number of Times Runperiod to be Repeated

OS:YearDescription,
  {2030ca39-3de7-425e-a68d-8c16717a35d9}, !- Handle
  ,                                       !- Calendar Year
  Sunday;                                 !- Day of Week for Start Day

OS:ScheduleTypeLimits,
  {1e4c8d11-4ec9-4ec1-90b9-b1aa0fb002ee}, !- Handle
  Schedule Type Limits 1;                 !- Name

OS:ScheduleTypeLimits,
  {0c328b9e-e3cb-4320-b1e8-79fd9c6a0246}, !- Handle
  On/Off,                                 !- Name
  0,                                      !- Lower Limit Value
  1,                                      !- Upper Limit Value
  Discrete,                               !- Numeric Type
  Availability;                           !- Unit Type

OS:ScheduleTypeLimits,
  {748140db-218b-4549-b458-920ff9532963}, !- Handle
  control_type,                           !- Name
  0,                                      !- Lower Limit Value
  4,                                      !- Upper Limit Value
  Discrete,                               !- Numeric Type
  ControlMode;                            !- Unit Type

OS:ScheduleTypeLimits,
  {fe9e39e1-d126-45c9-b972-6aef09ac885c}, !- Handle
  fraction,                               !- Name
  0,                                      !- Lower Limit Value
  1,                                      !- Upper Limit Value
  Continuous;                             !- Numeric Type

OS:Schedule:Day,
  {87a309d7-dba4-46b9-afed-2f30bca9fe70}, !- Handle
  OccupancyDay,                           !- Name
  {fe9e39e1-d126-45c9-b972-6aef09ac885c}, !- Schedule Type Limits Name
  ,                                       !- Interpolate to Timestep
  1,                                      !- Hour 1
  0,                                      !- Minute 1
  1,                                      !- Value Until Time 1
  2,                                      !- Hour 2
  0,                                      !- Minute 2
  1,                                      !- Value Until Time 2
  3,                                      !- Hour 3
  0,                                      !- Minute 3
  1,                                      !- Value Until Time 3
  4,                                      !- Hour 4
  0,                                      !- Minute 4
  1,                                      !- Value Until Time 4
  5,                                      !- Hour 5
  0,                                      !- Minute 5
  1,                                      !- Value Until Time 5
  6,                                      !- Hour 6
  0,                                      !- Minute 6
  1,                                      !- Value Until Time 6
  7,                                      !- Hour 7
  0,                                      !- Minute 7
  1,                                      !- Value Until Time 7
  8,                                      !- Hour 8
  0,                                      !- Minute 8
  0.8831,                                 !- Value Until Time 8
  9,                                      !- Hour 9
  0,                                      !- Minute 9
  0.40861,                                !- Value Until Time 9
  10,                                     !- Hour 10
  0,                                      !- Minute 10
  0.24189,                                !- Value Until Time 10
  11,                                     !- Hour 11
  0,                                      !- Minute 11
  0.24189,                                !- Value Until Time 11
  12,                                     !- Hour 12
  0,                                      !- Minute 12
  0.24189,                                !- Value Until Time 12
  13,                                     !- Hour 13
  0,                                      !- Minute 13
  0.24189,                                !- Value Until Time 13
  14,                                     !- Hour 14
  0,                                      !- Minute 14
  0.24189,                                !- Value Until Time 14
  15,                                     !- Hour 15
  0,                                      !- Minute 15
  0.24189,                                !- Value Until Time 15
  16,                                     !- Hour 16
  0,                                      !- Minute 16
  0.24189,                                !- Value Until Time 16
  17,                                     !- Hour 17
  0,                                      !- Minute 17
  0.29498,                                !- Value Until Time 17
  18,                                     !- Hour 18
  0,                                      !- Minute 18
  0.5531,                                 !- Value Until Time 18
  19,                                     !- Hour 19
  0,                                      !- Minute 19
  0.89693,                                !- Value Until Time 19
  20,                                     !- Hour 20
  0,                                      !- Minute 20
  0.89693,                                !- Value Until Time 20
  21,                                     !- Hour 21
  0,                                      !- Minute 21
  0.89693,                                !- Value Until Time 21
  22,                                     !- Hour 22
  0,                                      !- Minute 22
  1,                                      !- Value Until Time 22
  23,                                     !- Hour 23
  0,                                      !- Minute 23
  1,                                      !- Value Until Time 23
  24,                                     !- Hour 24
  0,                                      !- Minute 24
  1;                                      !- Value Until Time 24

OS:Schedule:Day,
  {a000a318-d41b-4e43-8829-ed5747829b48}, !- Handle
  LightingDay,                            !- Name
  {fe9e39e1-d126-45c9-b972-6aef09ac885c}, !- Schedule Type Limits Name
  ,                                       !- Interpolate to Timestep
  1,                                      !- Hour 1
  0,                                      !- Minute 1
  0.0625,                                 !- Value Until Time 1
  2,                                      !- Hour 2
  0,                                      !- Minute 2
  0.0625,                                 !- Value Until Time 2
  3,                                      !- Hour 3
  0,                                      !- Minute 3
  0.0625,                                 !- Value Until Time 3
  4,                                      !- Hour 4
  0,                                      !- Minute 4
  0.0625,                                 !- Value Until Time 4
  5,                                      !- Hour 5
  0,                                      !- Minute 5
  0.1875,                                 !- Value Until Time 5
  6,                                      !- Hour 6
  0,                                      !- Minute 6
  0.390625,                               !- Value Until Time 6
  7,                                      !- Hour 7
  0,                                      !- Minute 7
  0.4375,                                 !- Value Until Time 7
  8,                                      !- Hour 8
  0,                                      !- Minute 8
  0.390625,                               !- Value Until Time 8
  9,                                      !- Hour 9
  0,                                      !- Minute 9
  0.171875,                               !- Value Until Time 9
  10,                                     !- Hour 10
  0,                                      !- Minute 10
  0.1171875,                              !- Value Until Time 10
  11,                                     !- Hour 11
  0,                                      !- Minute 11
  0.1171875,                              !- Value Until Time 11
  12,                                     !- Hour 12
  0,                                      !- Minute 12
  0.1171875,                              !- Value Until Time 12
  13,                                     !- Hour 13
  0,                                      !- Minute 13
  0.1171875,                              !- Value Until Time 13
  14,                                     !- Hour 14
  0,                                      !- Minute 14
  0.1171875,                              !- Value Until Time 14
  15,                                     !- Hour 15
  0,                                      !- Minute 15
  0.1171875,                              !- Value Until Time 15
  16,                                     !- Hour 16
  0,                                      !- Minute 16
  0.203125,                               !- Value Until Time 16
  17,                                     !- Hour 17
  0,                                      !- Minute 17
  0.4375,                                 !- Value Until Time 17
  18,                                     !- Hour 18
  0,                                      !- Minute 18
  0.609375,                               !- Value Until Time 18
  19,                                     !- Hour 19
  0,                                      !- Minute 19
  0.8203125,                              !- Value Until Time 19
  20,                                     !- Hour 20
  0,                                      !- Minute 20
  0.984375,                               !- Value Until Time 20
  21,                                     !- Hour 21
  0,                                      !- Minute 21
  1,                                      !- Value Until Time 21
  22,                                     !- Hour 22
  0,                                      !- Minute 22
  0.6875,                                 !- Value Until Time 22
  23,                                     !- Hour 23
  0,                                      !- Minute 23
  0.3828125,                              !- Value Until Time 23
  24,                                     !- Hour 24
  0,                                      !- Minute 24
  0.15625;                                !- Value Until Time 24

OS:Schedule:Day,
  {26f87047-247b-415a-94a2-3909df7c721e}, !- Handle
  LightingDay_EELighting_OccSensors,      !- Name
  {fe9e39e1-d126-45c9-b972-6aef09ac885c}, !- Schedule Type Limits Name
  ,                                       !- Interpolate to Timestep
  1,                                      !- Hour 1
  0,                                      !- Minute 1
  0.065170403,                            !- Value Until Time 1
  2,                                      !- Hour 2
  0,                                      !- Minute 2
  0.065170403,                            !- Value Until Time 2
  3,                                      !- Hour 3
  0,                                      !- Minute 3
  0.065170403,                            !- Value Until Time 3
  4,                                      !- Hour 4
  0,                                      !- Minute 4
  0.065170403,                            !- Value Until Time 4
  5,                                      !- Hour 5
  0,                                      !- Minute 5
  0.195511208,                            !- Value Until Time 5
  6,                                      !- Hour 6
  0,                                      !- Minute 6
  0.407315016,                            !- Value Until Time 6
  7,                                      !- Hour 7
  0,                                      !- Minute 7
  0.456192818,                            !- Value Until Time 7
  8,                                      !- Hour 8
  0,                                      !- Minute 8
  0.407315016,                            !- Value Until Time 8
  9,                                      !- Hour 9
  0,                                      !- Minute 9
  0.179218607,                            !- Value Until Time 9
  10,                                     !- Hour 10
  0,                                      !- Minute 10
  0.122194505,                            !- Value Until Time 10
  11,                                     !- Hour 11
  0,                                      !- Minute 11
  0.122194505,                            !- Value Until Time 11
  12,                                     !- Hour 12
  0,                                      !- Minute 12
  0.122194505,                            !- Value Until Time 12
  13,                                     !- Hour 13
  0,                                      !- Minute 13
  0.122194505,                            !- Value Until Time 13
  14,                                     !- Hour 14
  0,                                      !- Minute 14
  0.122194505,                            !- Value Until Time 14
  15,                                     !- Hour 15
  0,                                      !- Minute 15
  0.122194505,                            !- Value Until Time 15
  16,                                     !- Hour 16
  0,                                      !- Minute 16
  0.211803808,                            !- Value Until Time 16
  17,                                     !- Hour 17
  0,                                      !- Minute 17
  0.456192818,                            !- Value Until Time 17
  18,                                     !- Hour 18
  0,                                      !- Minute 18
  0.635411425,                            !- Value Until Time 18
  19,                                     !- Hour 19
  0,                                      !- Minute 19
  0.855361533,                            !- Value Until Time 19
  20,                                     !- Hour 20