
Version,
  9.6;                                    !- Version Identifier

Timestep,
  4;                                      !- Number of Timesteps per Hour

LifeCycleCost:Parameters,
  Life Cycle Cost Parameters,             !- Name
  EndOfYear,                              !- Discounting Convention
  ConstantDollar,                         !- Inflation Approach
  0.03,                                   !- Real Discount Rate
  ,                                       !- Nominal Discount Rate
  ,                                       !- Inflation
  ,                                       !- Base Date Month
  2011,                                   !- Base Date Year
  ,                                       !- Service Date Month
  2011,                                   !- Service Date Year
  25,                                     !- Length of Study Period in Years
  ,                                       !- Tax rate
  None;                                   !- Depreciation Method

LifeCycleCost:UsePriceEscalation,
  U.S. Avg  Commercial-Electricity,       !- Name
  Electricity,                            !- Resource
  2011,                                   !- Escalation Start Year
  January,                                !- Escalation Start Month
  0.9838,                                 !- Year Escalation 1
  0.9730,                                 !- Year Escalation 2
  0.9632,                                 !- Year Escalation 3
  0.9611,                                 !- Year Escalation 4
  0.9571,                                 !- Year Escalation 5
  0.9553,                                 !- Year Escalation 6
  0.9539,                                 !- Year Escalation 7
  0.9521,                                 !- Year Escalation 8
  0.9546,                                 !- Year Escalation 9
  0.9550,                                 !- Year Escalation 10
  0.9553,                                 !- Year Escalation 11
  0.9564,                                 !- Year Escalation 12
  0.9575,                                 !- Year Escalation 13
  0.9596,                                 !- Year Escalation 14
  0.9618,                                 !- Year Escalation 15
  0.9614,                                 !- Year Escalation 16
  0.9618,                                 !- Year Escalation 17
  0.9618,                                 !- Year Escalation 18
  0.9593,                                 !- Year Escalation 19
  0.9589,                                 !- Year Escalation 20
  0.9607,                                 !- Year Escalation 21
  0.9625,                                 !- Year Escalation 22
  0.9650,                                 !- Year Escalation 23
  0.9708,                                 !- Year Escalation 24
  0.9751,                                 !- Year Escalation 25
  0.9762,                                 !- Year Escalation 26
  0.9766,                                 !- Year Escalation 27
  0.9766,                                 !- Year Escalation 28
  0.9769,                                 !- Year Escalation 29
  0.9773;                                 !- Year Escalation 30

LifeCycleCost:UsePriceEscalation,
  U.S. Avg  Commercial-Distillate Oil,    !- Name
  FuelOilNo1,                             !- Resource
  2011,                                   !- Escalation Start Year
  January,                                !- Escalation Start Month
  0.9714,                                 !- Year Escalation 1
  0.9730,                                 !- Year Escalation 2
  0.9942,                                 !- Year Escalation 3
  1.0164,                                 !- Year Escalation 4
  1.0541,                                 !- Year Escalation 5
  1.0928,                                 !- Year Escalation 6
  1.1267,                                 !- Year Escalation 7
  1.1580,                                 !- Year Escalation 8
  1.1792,                                 !- Year Escalation 9
  1.1967,                                 !- Year Escalation 10
  1.2200,                                 !- Year Escalation 11
  1.2333,                                 !- Year Escalation 12
  1.2566,                                 !- Year Escalation 13
  1.2709,                                 !- Year Escalation 14
  1.2826,                                 !- Year Escalation 15
  1.2985,                                 !- Year Escalation 16
  1.3102,                                 !- Year Escalation 17
  1.3250,                                 !- Year Escalation 18
  1.3261,                                 !- Year Escalation 19
  1.3282,                                 !- Year Escalation 20
  1.3324,                                 !- Year Escalation 21
  1.3356,                                 !- Year Escalation 22
  1.3431,                                 !- Year Escalation 23
  1.3510,                                 !- Year Escalation 24
  1.3568,                                 !- Year Escalation 25
  1.3606,                                 !- Year Escalation 26
  1.3637,                                 !- Year Escalation 27
  1.3674,                                 !- Year Escalation 28
  1.3706,                                 !- Year Escalation 29
  1.3743;                                 !- Year Escalation 30

LifeCycleCost:UsePriceEscalation,
  U.S. Avg  Commercial-Residual Oil,      !- Name
  FuelOilNo2,                             !- Resource
  2011,                                   !- Escalation Start Year
  January,                                !- Escalation Start Month
  0.8469,                                 !- Year Escalation 1
  0.8257,                                 !- Year Escalation 2
  0.8681,                                 !- Year Escalation 3
  0.8988,                                 !- Year Escalation 4
  0.9289,                                 !- Year Escalation 5
  0.9604,                                 !- Year Escalation 6
  0.9897,                                 !- Year Escalation 7
  1.0075,                                 !- Year Escalation 8
  1.0314,                                 !- Year Escalation 9
  1.0554,                                 !- Year Escalation 10
  1.0861,                                 !- Year Escalation 11
  1.1278,                                 !- Year Escalation 12
  1.1497,                                 !- Year Escalation 13
  1.1620,                                 !- Year Escalation 14
  1.1743,                                 !- Year Escalation 15
  1.1852,                                 !- Year Escalation 16
  1.1948,                                 !- Year Escalation 17
  1.2037,                                 !- Year Escalation 18
  1.2071,                                 !- Year Escalation 19
  1.2119,                                 !- Year Escalation 20
  1.2139,                                 !- Year Escalation 21
  1.2194,                                 !- Year Escalation 22
  1.2276,                                 !- Year Escalation 23
  1.2365,                                 !- Year Escalation 24
  1.2420,                                 !- Year Escalation 25
  1.2461,                                 !- Year Escalation 26
  1.2509,                                 !- Year Escalation 27
  1.2550,                                 !- Year Escalation 28
  1.2591,                                 !- Year Escalation 29
  1.2638;                                 !- Year Escalation 30

LifeCycleCost:UsePriceEscalation,
  U.S. Avg  Commercial-Natural gas,       !- Name
  NaturalGas,                             !- Resource
  2011,                                   !- Escalation Start Year
  January,                                !- Escalation Start Month
  0.9823,                                 !- Year Escalation 1
  0.9557,                                 !- Year Escalation 2
  0.9279,                                 !- Year Escalation 3
  0.9257,                                 !- Year Escalation 4
  0.9346,                                 !- Year Escalation 5
  0.9412,                                 !- Year Escalation 6
  0.9512,                                 !- Year Escalation 7
  0.9645,                                 !- Year Escalation 8
  0.9856,                                 !- Year Escalation 9
  1.0067,                                 !- Year Escalation 10
  1.0222,                                 !- Year Escalation 11
  1.0410,                                 !- Year Escalation 12
  1.0610,                                 !- Year Escalation 13
  1.0787,                                 !- Year Escalation 14
  1.0942,                                 !- Year Escalation 15
  1.1098,                                 !- Year Escalation 16
  1.1220,                                 !- Year Escalation 17
  1.1308,                                 !- Year Escalation 18
  1.1386,                                 !- Year Escalation 19
  1.1486,                                 !- Year Escalation 20
  1.1619,                                 !- Year Escalation 21
  1.1763,                                 !- Year Escalation 22
  1.1918,                                 !- Year Escalation 23
  1.2118,                                 !- Year Escalation 24
  1.2284,                                 !- Year Escalation 25
  1.2439,                                 !- Year Escalation 26
  1.2605,                                 !- Year Escalation 27
  1.2772,                                 !- Year Escalation 28
  1.2938,                                 !- Year Escalation 29
  1.3115;                                 !- Year Escalation 30

LifeCycleCost:UsePriceEscalation,
  U.S. Avg  Commercial-Coal,              !- Name
  Coal,                                   !- Resource
  2011,                                   !- Escalation Start Year
  January,                                !- Escalation Start Month
  0.9970,                                 !- Year Escalation 1
  1.0089,                                 !- Year Escalation 2
  1.0089,                                 !- Year Escalation 3
  0.9941,                                 !- Year Escalation 4
  0.9941,                                 !- Year Escalation 5
  1.0000,                                 !- Year Escalation 6
  1.0030,                                 !- Year Escalation 7
  1.0059,                                 !- Year Escalation 8
  1.0089,                                 !- Year Escalation 9
  1.0119,                                 !- Year Escalation 10
  1.0148,                                 !- Year Escalation 11
  1.0178,                                 !- Year Escalation 12
  1.0208,                                 !- Year Escalation 13
  1.0267,                                 !- Year Escalation 14
  1.0297,                                 !- Year Escalation 15
  1.0356,                                 !- Year Escalation 16
  1.0415,                                 !- Year Escalation 17
  1.0534,                                 !- Year Escalation 18
  1.0564,                                 !- Year Escalation 19
  1.0593,                                 !- Year Escalation 20
  1.0653,                                 !- Year Escalation 21
  1.0712,                                 !- Year Escalation 22
  1.0742,                                 !- Year Escalation 23
  1.0801,                                 !- Year Escalation 24
  1.0831,                                 !- Year Escalation 25
  1.0831,                                 !- Year Escalation 26
  1.0861,                                 !- Year Escalation 27
  1.0890,                                 !- Year Escalation 28
  1.0920,                                 !- Year Escalation 29
  1.0950;                                 !- Year Escalation 30

Building,
  Building 1,                             !- Name
  90,                                     !- North Axis {deg}
  Suburbs,                                !- Terrain
  ,                                       !- Loads Convergence Tolerance Value {W}
  ,                                       !- Temperature Convergence Tolerance Value {deltaC}
  ,                                       !- Solar Distribution
  ,                                       !- Maximum Number of Warmup Days
  ;                                       !- Minimum Number of Warmup Days

Shading:Building:Detailed,
  Surface 8 - res eaves,                  !- Name
  ,                                       !- Transmittance Schedule Name
  ,                                       !- Number of Vertices
  10.709478114116, 0, 2.7432,             !- X,Y,Z Vertex 1 {m}
  10.709478114116, 2.80552169836556, 4.14596084918278, !- X,Y,Z Vertex 2 {m}
  10.099878114116, 2.80552169836556, 4.14596084918278, !- X,Y,Z Vertex 3 {m}
  10.099878114116, 0, 2.7432;             !- X,Y,Z Vertex 4 {m}

Shading:Building:Detailed,
  Surface 8 - res eaves 1,                !- Name
  ,                                       !- Transmittance Schedule Name
  ,                                       !- Number of Vertices
  -0.6096, 2.80552169836556, 4.14596084918278, !- X,Y,Z Vertex 1 {m}
  -0.6096, 0, 2.7432,                     !- X,Y,Z Vertex 2 {m}
  0, 0, 2.7432,                           !- X,Y,Z Vertex 3 {m}
  0, 2.80552169836556, 4.14596084918278;  !- X,Y,Z Vertex 4 {m}

Shading:Building:Detailed,
  Surface 8 - res eaves 2,                !- Name
  ,                                       !- Transmittance Schedule Name
  ,                                       !- Number of Vertices
  0, -0.6096, 2.4384,                     !- X,Y,Z Vertex 1 {m}
  10.099878114116, -0.6096, 2.4384,       !- X,Y,Z Vertex 2 {m}
  10.099878114116, 0, 2.7432,             !- X,Y,Z Vertex 3 {m}
  0, 0, 2.7432;                           !- X,Y,Z Vertex 4 {m}

Shading:Building:Detailed,
  Surface 9 - res eaves,                  !- Name
  ,                                       !- Transmittance Schedule Name
  ,                                       !- Number of Vertices
  -0.6096, 5.61104339673113, 2.7432,      !- X,Y,Z Vertex 1 {m}
  -0.6096, 2.80552169836556, 4.14596084918278, !- X,Y,Z Vertex 2 {m}
  0, 2.80552169836556, 4.14596084918278,  !- X,Y,Z Vertex 3 {m}
  0, 5.61104339673113, 2.7432;            !- X,Y,Z Vertex 4 {m}

Shading:Building:Detailed,
  Surface 9 - res eaves 1,                !- Name
  ,                                       !- Transmittance Schedule Name
  ,                                       !- Number of Vertices
  10.709478114116, 2.80552169836556, 4.14596084918278, !- X,Y,Z Vertex 1 {m}
  10.709478114116, 5.61104339673113, 2.7432, !- X,Y,Z Vertex 2 {m}
  10.099878114116, 5.61104339673113, 2.7432, !- X,Y,Z Vertex 3 {m}
  10.099878114116, 2.80552169836556, 4.14596084918278; !- X,Y,Z Vertex 4 {m}

Shading:Building:Detailed,
  Surface 9 - res eaves 2,                !- Name
  ,                                       !- Transmittance Schedule Name
  ,                                       !- Number of Vertices
  10.099878114116, 6.22064339673113, 2.4384, !- X,Y,Z Vertex 1 {m}
  0, 6.22064339673113, 2.4384,            !- X,Y,Z Vertex 2 {m}
  0, 5.61104339673113, 2.7432,            !- X,Y,Z Vertex 3 {m}
  10.099878114116, 5.61104339673113, 2.7432; !- X,Y,Z Vertex 4 {m}

Shading:Building:Detailed,
  res neighbors left,                     !- Name
  ,                                       !- Transmittance Schedule Name
  ,                                       !- Number of Vertices
  -4.572, 0, 0,                           !- X,Y,Z Vertex 1 {m}
  -4.572, 0, 3.84116084918278,            !- X,Y,Z Vertex 2 {m}
  -4.572, 5.61104339673113, 3.84116084918278, !- X,Y,Z Vertex 3 {m}
  -4.572, 5.61104339673113, 0;            !- X,Y,Z Vertex 4 {m}

Shading:Building:Detailed,
  res neighbors right,                    !- Name
  ,                                       !- Transmittance Schedule Name
  ,                                       !- Number of Vertices
  14.671878114116, 5.61104339673113, 0,   !- X,Y,Z Vertex 1 {m}
  14.671878114116, 5.61104339673113, 3.84116084918278, !- X,Y,Z Vertex 2 {m}
  14.671878114116, 0, 3.84116084918278,   !- X,Y,Z Vertex 3 {m}
  14.671878114116, 0, 0;                  !- X,Y,Z Vertex 4 {m}

Shading:Building:Detailed,
  Surface 2 - Window 1 shading surface,   !- Name
  window shading schedule,                !- Transmittance Schedule Name
  ,                                       !- Number of Vertices
  0, 3.5156213917661, 2.1336,             !- X,Y,Z Vertex 1 {m}
  0, 3.5156213917661, 1.22766795862379,   !- X,Y,Z Vertex 2 {m}
  0, 2.836002456, 1.22766795862379,       !- X,Y,Z Vertex 3 {m}
  0, 2.836002456, 2.1336;                 !- X,Y,Z Vertex 4 {m}

Shading:Building:Detailed,
  Surface 2 - Window 2 shading surface,   !- Name
  window shading schedule,                !- Transmittance Schedule Name
  ,                                       !- Number of Vertices
  0, 2.775042456, 2.1336,                 !- X,Y,Z Vertex 1 {m}
  0, 2.775042456, 1.22766795862379,       !- X,Y,Z Vertex 2 {m}
  0, 2.0954235202339, 1.22766795862379,   !- X,Y,Z Vertex 3 {m}
  0, 2.0954235202339, 2.1336;             !- X,Y,Z Vertex 4 {m}

Shading:Building:Detailed,
  Surface 3 - Window 1 shading surface,   !- Name
  window shading schedule,                !- Transmittance Schedule Name
  ,                                       !- Number of Vertices
  5.99222307550144, 5.611044912, 2.1336,  !- X,Y,Z Vertex 1 {m}
  5.99222307550144, 5.611044912, 0.918164623492584, !- X,Y,Z Vertex 2 {m}
  5.080418592, 5.611044912, 0.918164623492584, !- X,Y,Z Vertex 3 {m}
  5.080418592, 5.611044912, 2.1336;       !- X,Y,Z Vertex 4 {m}

Shading:Building:Detailed,
  Surface 3 - Window 2 shading surface,   !- Name
  window shading schedule,                !- Transmittance Schedule Name
  ,                                       !- Number of Vertices
  5.019458592, 5.611044912, 2.1336,       !- X,Y,Z Vertex 1 {m}
  5.019458592, 5.611044912, 0.918164623492584, !- X,Y,Z Vertex 2 {m}
  4.10765410849856, 5.611044912, 0.918164623492584, !- X,Y,Z Vertex 3 {m}
  4.10765410849856, 5.611044912, 2.1336;  !- X,Y,Z Vertex 4 {m}

Shading:Building:Detailed,
  Surface 4 - Window 1 shading surface,   !- Name
  window shading schedule,                !- Transmittance Schedule Name
  ,                                       !- Number of Vertices
  10.099877184, 2.0954235202339, 2.1336,  !- X,Y,Z Vertex 1 {m}
  10.099877184, 2.0954235202339, 1.22766795862379, !- X,Y,Z Vertex 2 {m}
  10.099877184, 2.775042456, 1.22766795862379, !- X,Y,Z Vertex 3 {m}
  10.099877184, 2.775042456, 2.1336;      !- X,Y,Z Vertex 4 {m}

Shading:Building:Detailed,
  Surface 4 - Window 2 shading surface,   !- Name
  window shading schedule,                !- Transmittance Schedule Name
  ,                                       !- Number of Vertices
  10.099877184, 2.836002456, 2.1336,      !- X,Y,Z Vertex 1 {m}
  10.099877184, 2.836002456, 1.22766795862379, !- X,Y,Z Vertex 2 {m}
  10.099877184, 3.5156213917661, 1.22766795862379, !- X,Y,Z Vertex 3 {m}
  10.099877184, 3.5156213917661, 2.1336;  !- X,Y,Z Vertex 4 {m}

Shading:Building:Detailed,
  Surface 5 - Window 1 shading surface,   !- Name
  window shading schedule,                !- Transmittance Schedule Name
  ,                                       !- Number of Vertices
  4.63198329834764, 0, 2.1336,            !- X,Y,Z Vertex 1 {m}
  4.63198329834764, 0, 0.918164673945409, !- X,Y,Z Vertex 2 {m}
  5.543787744, 0, 0.918164673945409,      !- X,Y,Z Vertex 3 {m}
  5.543787744, 0, 2.1336;                 !- X,Y,Z Vertex 4 {m}

Shading:Building:Detailed,
  Surface 5 - Window 2 shading surface,   !- Name
  window shading schedule,                !- Transmittance Schedule Name
  ,                                       !- Number of Vertices
  5.604747744, 0, 2.1336,                 !- X,Y,Z Vertex 1 {m}
  5.604747744, 0, 0.918164673945409,      !- X,Y,Z Vertex 2 {m}
  6.51655218965236, 0, 0.918164673945409, !- X,Y,Z Vertex 3 {m}
  6.51655218965236, 0, 2.1336;            !- X,Y,Z Vertex 4 {m}

Zone,
  finished basement zone,                 !- Name
  -0,                                     !- Direction of Relative North {deg}
  0,                                      !- X Origin {m}
  0,                                      !- Y Origin {m}
  -2.4384,                                !- Z Origin {m}
  ,                                       !- Type
  1,                                      !- Multiplier
  ,                                       !- Ceiling Height {m}
  ,                                       !- Volume {m3}
  ,                                       !- Floor Area {m2}
  ,                                       !- Zone Inside Convection Algorithm
  ,                                       !- Zone Outside Convection Algorithm
  Yes;                                    !- Part of Total Floor Area

BuildingSurface:Detailed,
  Surface 12,                             !- Name
  Floor,                                  !- Surface Type
  FloorFndGrndFinB,                       !- Construction Name
  finished basement zone,                 !- Zone Name
  ,                                       !- Space Name
  Foundation,                             !- Outside Boundary Condition
  Foundation Kiva 1,                      !- Outside Boundary Condition Object
  NoSun,                                  !- Sun Exposure
  NoWind,                                 !- Wind Exposure
  ,                                       !- View Factor to Ground
  ,                                       !- Number of Vertices
  0, 0, 0,                                !- X,Y,Z Vertex 1 {m}
  0, 5.61104339673113, 0,                 !- X,Y,Z Vertex 2 {m}
  10.099878114116, 5.61104339673113, 0,   !- X,Y,Z Vertex 3 {m}
  10.099878114116, 0, 0;                  !- X,Y,Z Vertex 4 {m}

SurfaceProperty:ExposedFoundationPerimeter,
  Surface 12,                             !- Surface Name
  TotalExposedPerimeter,                  !- Exposed Perimeter Calculation Method
  31.4218430216944,                       !- Total Exposed Perimeter {m}
  ;                                       !- Exposed Perimeter Fraction {dimensionless}

BuildingSurface:Detailed,
  Surface 13,                             !- Name
  Wall,                                   !- Surface Type
  WallFndGrndFinB,                        !- Construction Name
  finished basement zone,                 !- Zone Name
  ,                                       !- Space Name
  Foundation,                             !- Outside Boundary Condition
  Foundation Kiva 1,                      !- Outside Boundary Condition Object
  NoSun,                                  !- Sun Exposure
  NoWind,                                 !- Wind Exposure
  ,                                       !- View Factor to Ground
  ,                                       !- Number of Vertices
  0, 5.61104339673113, 2.4384,            !- X,Y,Z Vertex 1 {m}
  0, 5.61104339673113, 0,                 !- X,Y,Z Vertex 2 {m}
  0, 0, 0,                                !- X,Y,Z Vertex 3 {m}
  0, 0, 2.4384;                           !- X,Y,Z Vertex 4 {m}

BuildingSurface:Detailed,
  Surface 14,                             !- Name
  Wall,                                   !- Surface Type
  WallFndGrndFinB,                        !- Construction Name
  finished basement zone,                 !- Zone Name
  ,                                       !- Space Name
  Foundation,                             !- Outside Boundary Condition
  Foundation Kiva 1,                      !- Outside Boundary Condition Object
  NoSun,                                  !- Sun Exposure
  NoWind,                                 !- Wind Exposure
  ,                                       !- View Factor to Ground
  ,                                       !- Number of Vertices
  10.099878114116, 5.61104339673113, 2.4384, !- X,Y,Z Vertex 1 {m}
  10.099878114116, 5.61104339673113, 0,   !- X,Y,Z Vertex 2 {m}
  0, 5.61104339673113, 0,                 !- X,Y,Z Vertex 3 {m}
  0, 5.61104339673113, 2.4384;            !- X,Y,Z Vertex 4 {m}

BuildingSurface:Detailed,
  Surface 15,                             !- Name
  Wall,                                   !- Surface Type
  WallFndGrndFinB,                        !- Construction Name
  finished basement zone,                 !- Zone Name
  ,                                       !- Space Name
  Foundation,                             !- Outside Boundary Condition
  Foundation Kiva 1,                      !- Outside Boundary Condition Object
  NoSun,                                  !- Sun Exposure
  NoWind,                                 !- Wind Exposure
  ,                                       !- View Factor to Ground
  ,                                       !- Number of Vertices
  10.099878114116, 0, 2.4384,             !- X,Y,Z Vertex 1 {m}
  10.099878114116, 0, 0,                  !- X,Y,Z Vertex 2 {m}
  10.099878114116, 5.61104339673113, 0,   !- X,Y,Z Vertex 3 {m}
  10.099878114116, 5.61104339673113, 2.4384; !- X,Y,Z Vertex 4 {m}

BuildingSurface:Detailed,
  Surface 16,                             !- Name
  Wall,                                   !- Surface Type
  WallFndGrndFinB,                        !- Construction Name
  finished basement zone,                 !- Zone Name
  ,                                       !- Space Name
  Foundation,                             !- Outside Boundary Condition
  Foundation Kiva 1,                      !- Outside Boundary Condition Object
  NoSun,                                  !- Sun Exposure
  NoWind,                                 !- Wind Exposure
  ,                                       !- View Factor to Ground
  ,                                       !- Number of Vertices
  0, 0, 2.4384,                           !- X,Y,Z Vertex 1 {m}
  0, 0, 0,                                !- X,Y,Z Vertex 2 {m}
  10.099878114116, 0, 0,                  !- X,Y,Z Vertex 3 {m}
  10.099878114116, 0, 2.4384;             !- X,Y,Z Vertex 4 {m}

BuildingSurface:Detailed,
  Surface 17,                             !- Name
  Ceiling,                                !- Surface Type
  FloorFinUninsFin Reversed,              !- Construction Name
  finished basement zone,                 !- Zone Name
  ,                                       !- Space Name
  Surface,                                !- Outside Boundary Condition
  Surface 1,                              !- Outside Boundary Condition Object
  NoSun,                                  !- Sun Exposure
  NoWind,                                 !- Wind Exposure
  ,                                       !- View Factor to Ground
  ,                                       !- Number of Vertices
  10.099878114116, 0, 2.4384,             !- X,Y,Z Vertex 1 {m}
  10.099878114116, 5.61104339673113, 2.4384, !- X,Y,Z Vertex 2 {m}
  0, 5.61104339673113, 2.4384,            !- X,Y,Z Vertex 3 {m}
  0, 0, 2.4384;                           !- X,Y,Z Vertex 4 {m}

InternalMass,
  finished basement space Partition,      !- Name
  WallIntFinUninsFin,                     !- Construction Name
  finished basement zone,                 !- Zone or ZoneList Name
  ,                                       !- Space or SpaceList Name
  56.6708543999998;                       !- Surface Area {m2}

InternalMass,
  res furniture mass finished basement space, !- Name
  res furniture construction finished basement space, !- Construction Name
  finished basement zone,                 !- Zone or ZoneList Name
  ,                                       !- Space or SpaceList Name
  22.6683417599999;                       !- Surface Area {m2}

People,
  res occupants|finished basement space,  !- Name
  finished basement zone,                 !- Zone or ZoneList or Space or SpaceList Name
  occupants,                              !- Number of People Schedule Name
  People,                                 !- Number of People Calculation Method
  1,                                      !- Number of People
  ,                                       !- People per Floor Area {person/m2}
  ,                                       !- Floor Area per Person {m2/person}
  0.319734,                               !- Fraction Radiant
  0.573,                                  !- Sensible Heat Fraction
  res occupants activity schedule,        !- Activity Level Schedule Name
  0,                                      !- Carbon Dioxide Generation Rate {m3/s-W}
  No,                                     !- Enable ASHRAE 55 Comfort Warnings
  ZoneAveraged;                           !- Mean Radiant Temperature Calculation Type

ScheduleTypeLimits,
  Fractional,                             !- Name
  0,                                      !- Lower Limit Value {BasedOnField A3}
  1,                                      !- Upper Limit Value {BasedOnField A3}
  Continuous;                             !- Numeric Type

Schedule:File,
  occupants,                              !- Name
  Fractional,                             !- Schedule Type Limits Name
  ,                                       !- File Name
  1,                                      !- Column Number
  1,                                      !- Rows to Skip at Top
  8760,                                   !- Number of Hours of Data
  Comma,                                  !- Column Separator
  No,                                     !- Interpolate to Timestep
  15;                                     !- Minutes per Item

Schedule:Constant,
  res occupants activity schedule,        !- Name
  ActivityLevel,                          !- Schedule Type Limits Name
  112.539290946133;                       !- Hourly Value

Lights,
  res lighting interior finished basement space, !- Name