
OS:Version,
  {58dfdd20-68f2-4260-ae8d-e15f544e7637}, !- Handle
  3.3.0;                                  !- Version Identifier

OS:Building,
  {616cc334-7e78-458e-978e-7fef98b34e0c}, !- Handle
  Building 1,                             !- Name
  ,                                       !- Building Sector Type
  90,                                     !- North Axis {deg}
  ,                                       !- Nominal Floor to Floor Height {m}
  ,                                       !- Space Type Name
  ,                                       !- Default Construction Set Name
  ,                                       !- Default Schedule Set Name
  2,                                      !- Standards Number of Stories
  1,                                      !- Standards Number of Above Ground Stories
  ,                                       !- Standards Template
  singlefamilydetached,                   !- Standards Building Type
  1;                                      !- Standards Number of Living Units

OS:Facility,
  {5cb7e9cc-119d-4524-a793-0e8478d429a7}; !- Handle

OS:Site,
  {51b474c5-524a-4ab7-8b6a-a79e3cd82c69}, !- Handle
  Denver-Aurora-Buckley AFB,              !- Name
  39.72,                                  !- Latitude {deg}
  -104.75,                                !- Longitude {deg}
  -7,                                     !- Time Zone {hr}
  1726,                                   !- Elevation {m}
  Suburbs;                                !- Terrain

OS:SimulationControl,
  {792231f7-cab9-4d42-b2e3-ea308539eec7}, !- Handle
  ,                                       !- Do Zone Sizing Calculation
  ,                                       !- Do System Sizing Calculation
  ,                                       !- Do Plant Sizing Calculation
  No;                                     !- Run Simulation for Sizing Periods

OS:Sizing:Parameters,
  {8488b87d-733e-4e87-a339-5fff119c7ccf}, !- Handle
  1.25,                                   !- Heating Sizing Factor
  1.15;                                   !- Cooling Sizing Factor

OS:Timestep,
  {2fafb139-2b12-4d7e-8de8-bf4d5467d7b1}, !- Handle
  4;                                      !- Number of Timesteps per Hour

OS:ShadowCalculation,
  {37f5519e-4382-4e61-ad9b-0208b6265eb9}, !- Handle
  PolygonClipping,                        !- Shading Calculation Method
  ,                                       !- Shading Calculation Update Frequency Method
  20,                                     !- Shading Calculation Update Frequency
  200,                                    !- Maximum Figures in Shadow Overlap Calculations
  ,                                       !- Polygon Clipping Algorithm
  512,                                    !- Pixel Counting Resolution
  DetailedSkyDiffuseModeling,             !- Sky Diffuse Modeling Algorithm
  No,                                     !- Output External Shading Calculation Results
  No,                                     !- Disable Self-Shading Within Shading Zone Groups
  No;                                     !- Disable Self-Shading From Shading Zone Groups to Other Zones

OS:HeatBalanceAlgorithm,
  {27d1b5c2-6d8a-4025-88d5-cc16ef88a561}, !- Handle
  ConductionTransferFunction,             !- Algorithm
  200;                                    !- Surface Temperature Upper Limit {C}

OS:RunPeriod,
  {64a9458f-f229-47bc-b58e-9894d97d7415}, !- Handle
  Run Period 1,                           !- Name
  1,                                      !- Begin Month
  1,                                      !- Begin Day of Month
  12,                                     !- End Month
  31,                                     !- End Day of Month
  ,                                       !- Use Weather File Holidays and Special Days
  ,                                       !- Use Weather File Daylight Saving Period
  ,                                       !- Apply Weekend Holiday Rule
  ,                                       !- Use Weather File Rain Indicators
  ,                                       !- Use Weather File Snow Indicators
  ;                                       !- Number of Times Runperiod to be Repeated

OS:LifeCycleCost:Parameters,
  {2370cdb1-a04c-4c24-9c3e-34a75953fd25}, !- Handle
  ,                                       !- Analysis Type
  ,                                       !- Discounting Convention
  ,                                       !- Inflation Approach
  ,                                       !- Real Discount Rate
  ,                                       !- Nominal Discount Rate
  ,                                       !- Inflation
  ,                                       !- Base Date Month
  ,                                       !- Base Date Year
  ,                                       !- Service Date Month
  ,                                       !- Service Date Year
  ;                                       !- Length of Study Period in Years

OS:SurfaceConvectionAlgorithm:Outside,
  {0ba1e584-aec1-424f-bd65-6a1f605d0bd7}, !- Handle
  DOE-2;                                  !- Algorithm

OS:SurfaceConvectionAlgorithm:Inside,
  {9f24a367-3f3e-4821-a63f-31221c1212e4}, !- Handle
  TARP;                                   !- Algorithm

OS:ZoneCapacitanceMultiplier:ResearchSpecial,
  {306f3549-6b2e-4ccb-9e88-d7d23ad705a7}, !- Handle
  ,                                       !- Temperature Capacity Multiplier
  15,                                     !- Humidity Capacity Multiplier
  ;                                       !- Carbon Dioxide Capacity Multiplier

OS:YearDescription,
  {cf51aadf-9245-4030-b89d-87d9f26d02d7}, !- Handle
  ,                                       !- Calendar Year
  Sunday,                                 !- Day of Week for Start Day
  ;                                       !- Is Leap Year

OS:AdditionalProperties,
  {c27cdf0b-c32b-4d53-988c-e225dc9ccf0e}, !- Handle
  {616cc334-7e78-458e-978e-7fef98b34e0c}, !- Object Name
  Building ID,                            !- Feature Name 1
  Integer,                                !- Feature Data Type 1
  396118,                                 !- Feature Value 1
  num_occupants,                          !- Feature Name 2
  Integer,                                !- Feature Data Type 2
  2,                                      !- Feature Value 2
  Schedules Path,                         !- Feature Name 3
  String,                                 !- Feature Data Type 3
  /var/simdata/openstudio/run/schedules.csv, !- Feature Value 3
  Total Units Modeled,                    !- Feature Name 4
  Integer,                                !- Feature Data Type 4
  1,                                      !- Feature Value 4
  has_water_heater_flue,                  !- Feature Name 5
  Boolean,                                !- Feature Data Type 5
  true,                                   !- Feature Value 5
  has_hvac_flue,                          !- Feature Name 6
  Boolean,                                !- Feature Data Type 6
  false,                                  !- Feature Value 6
  has_fireplace_chimney,                  !- Feature Name 7
  Boolean,                                !- Feature Data Type 7
  false;                                  !- Feature Value 7

OS:ClimateZones,
  {3e11329b-ee97-4ab6-806e-37c81796acb9}, !- Handle
  Building America,                       !- Climate Zone Institution Name 1
  ,                                       !- Climate Zone Document Name 1
  0,                                      !- Climate Zone Document Year 1
  Cold,                                   !- Climate Zone Value 1
  ASHRAE,                                 !- Climate Zone Institution Name 2
  ANSI/ASHRAE Standard 169,               !- Climate Zone Document Name 2
  2006,                                   !- Climate Zone Document Year 2
  ,                                       !- Climate Zone Value 2
  CEC,                                    !- Climate Zone Institution Name 3
  California Climate Zone Descriptions,   !- Climate Zone Document Name 3
  1995,                                   !- Climate Zone Document Year 3
  ;                                       !- Climate Zone Value 3

OS:Site:WaterMainsTemperature,
  {1b5a176e-e63e-44d8-88f2-904cb6a75731}, !- Handle
  Correlation,                            !- Calculation Method
  ,                                       !- Temperature Schedule Name
  9.35844748858449,                       !- Annual Average Outdoor Air Temperature {C}
  27.2474462365591;                       !- Maximum Difference In Monthly Average Outdoor Air Temperatures {deltaC}

OS:RunPeriodControl:DaylightSavingTime,
  {08a18b8c-5b8d-417b-8894-fc9ef2e1c0d9}, !- Handle
  3/10,                                   !- Start Date
  11/3;                                   !- End Date

OS:Site:GroundTemperature:Deep,
  {877bc14e-6bac-4154-843e-d171aab8e040}, !- Handle
  9.35844748858449,                       !- January Deep Ground Temperature {C}
  9.35844748858449,                       !- February Deep Ground Temperature {C}
  9.35844748858449,                       !- March Deep Ground Temperature {C}
  9.35844748858449,                       !- April Deep Ground Temperature {C}
  9.35844748858449,                       !- May Deep Ground Temperature {C}
  9.35844748858449,                       !- June Deep Ground Temperature {C}
  9.35844748858449,                       !- July Deep Ground Temperature {C}
  9.35844748858449,                       !- August Deep Ground Temperature {C}
  9.35844748858449,                       !- September Deep Ground Temperature {C}
  9.35844748858449,                       !- October Deep Ground Temperature {C}
  9.35844748858449,                       !- November Deep Ground Temperature {C}
  9.35844748858449;                       !- December Deep Ground Temperature {C}

OS:ThermalZone,
  {cd82d763-c87a-4ce0-8283-b544123c12f3}, !- Handle
  living zone,                            !- Name
  ,                                       !- Multiplier
  ,                                       !- Ceiling Height {m}
  ,                                       !- Volume {m3}
  ,                                       !- Floor Area {m2}
  ,                                       !- Zone Inside Convection Algorithm
  ,                                       !- Zone Outside Convection Algorithm
  ,                                       !- Zone Conditioning Equipment List Name
  {767a20c7-f6d6-47ae-9311-1fe6d4ad799c}, !- Zone Air Inlet Port List
  {787a1b47-cca2-4dde-a50c-33169459df21}, !- Zone Air Exhaust Port List
  {1dbb1ab1-475c-4f5c-8f43-96d8e692cdb0}, !- Zone Air Node Name
  {63f4b02f-48c5-4303-b617-49dbf014c9a0}, !- Zone Return Air Port List
  ,                                       !- Primary Daylighting Control Name
  ,                                       !- Fraction of Zone Controlled by Primary Daylighting Control
  ,                                       !- Secondary Daylighting Control Name
  ,                                       !- Fraction of Zone Controlled by Secondary Daylighting Control
  ,                                       !- Illuminance Map Name
  {04b2e87a-63aa-4c3d-86bf-bf573902f18a}, !- Group Rendering Name
  {aafb2a94-53a4-40c8-ae50-b8ac6abf7d67}, !- Thermostat Name
  No;                                     !- Use Ideal Air Loads

OS:Node,
  {2facb457-1da7-47fd-a655-35b0faabd855}, !- Handle
  Node 1,                                 !- Name
  {1dbb1ab1-475c-4f5c-8f43-96d8e692cdb0}, !- Inlet Port
  ;                                       !- Outlet Port

OS:Connection,
  {1dbb1ab1-475c-4f5c-8f43-96d8e692cdb0}, !- Handle
  {cd82d763-c87a-4ce0-8283-b544123c12f3}, !- Source Object
  11,                                     !- Outlet Port
  {2facb457-1da7-47fd-a655-35b0faabd855}, !- Target Object
  2;                                      !- Inlet Port

OS:PortList,
  {767a20c7-f6d6-47ae-9311-1fe6d4ad799c}, !- Handle
  {cd82d763-c87a-4ce0-8283-b544123c12f3}, !- HVAC Component
  {d81eea21-ba33-4e5b-9955-dbcfd866cf44}, !- Port 1
  {9bf9b319-59d1-403d-a63d-1927a536e336}; !- Port 2

OS:PortList,
  {787a1b47-cca2-4dde-a50c-33169459df21}, !- Handle
  {cd82d763-c87a-4ce0-8283-b544123c12f3}, !- HVAC Component
  {3be0e1f0-08a4-4644-9f13-d95f5e6afcc4}; !- Port 1

OS:PortList,
  {63f4b02f-48c5-4303-b617-49dbf014c9a0}, !- Handle
  {cd82d763-c87a-4ce0-8283-b544123c12f3}, !- HVAC Component
  {18a2cf14-9eac-4063-b819-13e6ed961303}; !- Port 1

OS:Sizing:Zone,
  {c4aab04d-e1b4-4286-9a92-1156c7c6dd19}, !- Handle
  {cd82d763-c87a-4ce0-8283-b544123c12f3}, !- Zone or ZoneList Name
  SupplyAirTemperature,                   !- Zone Cooling Design Supply Air Temperature Input Method
  14,                                     !- Zone Cooling Design Supply Air Temperature {C}
  11.11,                                  !- Zone Cooling Design Supply Air Temperature Difference {deltaC}
  SupplyAirTemperature,                   !- Zone Heating Design Supply Air Temperature Input Method
  40,                                     !- Zone Heating Design Supply Air Temperature {C}
  11.11,                                  !- Zone Heating Design Supply Air Temperature Difference {deltaC}
  0.0085,                                 !- Zone Cooling Design Supply Air Humidity Ratio {kg-H2O/kg-air}
  0.008,                                  !- Zone Heating Design Supply Air Humidity Ratio {kg-H2O/kg-air}
  ,                                       !- Zone Heating Sizing Factor
  ,                                       !- Zone Cooling Sizing Factor
  DesignDay,                              !- Cooling Design Air Flow Method
  ,                                       !- Cooling Design Air Flow Rate {m3/s}
  ,                                       !- Cooling Minimum Air Flow per Zone Floor Area {m3/s-m2}
  ,                                       !- Cooling Minimum Air Flow {m3/s}
  ,                                       !- Cooling Minimum Air Flow Fraction
  DesignDay,                              !- Heating Design Air Flow Method
  ,                                       !- Heating Design Air Flow Rate {m3/s}
  ,                                       !- Heating Maximum Air Flow per Zone Floor Area {m3/s-m2}
  ,                                       !- Heating Maximum Air Flow {m3/s}
  ,                                       !- Heating Maximum Air Flow Fraction
  No,                                     !- Account for Dedicated Outdoor Air System
  NeutralSupplyAir,                       !- Dedicated Outdoor Air System Control Strategy
  autosize,                               !- Dedicated Outdoor Air Low Setpoint Temperature for Design {C}
  autosize;                               !- Dedicated Outdoor Air High Setpoint Temperature for Design {C}

OS:ZoneHVAC:EquipmentList,
  {347f365e-48b2-4b32-9efb-933825cb945e}, !- Handle
  Zone HVAC Equipment List 1,             !- Name
  {cd82d763-c87a-4ce0-8283-b544123c12f3}, !- Thermal Zone
  SequentialLoad,                         !- Load Distribution Scheme
  {69419b8c-45fd-440e-bb92-01fdcc61a52f}, !- Zone Equipment 1
  1,                                      !- Zone Equipment Cooling Sequence 1
  1,                                      !- Zone Equipment Heating or No-Load Sequence 1
  ,                                       !- Zone Equipment Sequential Cooling Fraction Schedule Name 1
  ,                                       !- Zone Equipment Sequential Heating Fraction Schedule Name 1
  {997dac0e-b2e5-4c51-96df-6f9d6247d15d}, !- Zone Equipment 2
  2,                                      !- Zone Equipment Cooling Sequence 2
  2,                                      !- Zone Equipment Heating or No-Load Sequence 2
  ,                                       !- Zone Equipment Sequential Cooling Fraction Schedule Name 2
  ;                                       !- Zone Equipment Sequential Heating Fraction Schedule Name 2

OS:Space,
  {447ed6bd-5091-4e1b-af00-46af12810679}, !- Handle
  living space,                           !- Name
  {118b532d-a380-4283-9647-bd5d4ff635b4}, !- Space Type Name
  ,                                       !- Default Construction Set Name
  ,                                       !- Default Schedule Set Name
  -0,                                     !- Direction of Relative North {deg}
  0,                                      !- X Origin {m}
  0,                                      !- Y Origin {m}
  0,                                      !- Z Origin {m}
  ,                                       !- Building Story Name
  {cd82d763-c87a-4ce0-8283-b544123c12f3}, !- Thermal Zone Name
  ,                                       !- Part of Total Floor Area
  ,                                       !- Design Specification Outdoor Air Object Name
  {e70f4f9b-ab28-4ed6-be38-1693fc46cf90}; !- Building Unit Name

OS:Surface,
  {c8aadb1a-1bde-45ed-9ea2-4a5f3a626764}, !- Handle
  Surface 1,                              !- Name
  Floor,                                  !- Surface Type
  {08910900-295e-4d35-937d-033e365e22c8}, !- Construction Name
  {447ed6bd-5091-4e1b-af00-46af12810679}, !- Space Name
  Surface,                                !- Outside Boundary Condition
  {7412e3e5-4e20-4854-b007-a63b0fc01a56}, !- Outside Boundary Condition Object
  NoSun,                                  !- Sun Exposure
  NoWind,                                 !- Wind Exposure
  ,                                       !- View Factor to Ground
  ,                                       !- Number of Vertices
  0, 0, 0,                                !- X,Y,Z Vertex 1 {m}
  0, 5.61104339673113, 0,                 !- X,Y,Z Vertex 2 {m}
  10.099878114116, 5.61104339673113, 0,   !- X,Y,Z Vertex 3 {m}
  10.099878114116, 0, 0;                  !- X,Y,Z Vertex 4 {m}

OS:Surface,
  {25efddcb-f639-4af6-95fc-a0c125d23329}, !- Handle
  Surface 2,                              !- Name
  Wall,                                   !- Surface Type
  {5315c03f-0fbb-4e02-bba9-e09fec2fa940}, !- Construction Name
  {447ed6bd-5091-4e1b-af00-46af12810679}, !- Space Name
  Outdoors,                               !- Outside Boundary Condition
  ,                                       !- Outside Boundary Condition Object
  SunExposed,                             !- Sun Exposure
  WindExposed,                            !- Wind Exposure
  ,                                       !- View Factor to Ground
  ,                                       !- Number of Vertices
  0, 5.61104339673113, 2.4384,            !- X,Y,Z Vertex 1 {m}
  0, 5.61104339673113, 0,                 !- X,Y,Z Vertex 2 {m}
  0, 0, 0,                                !- X,Y,Z Vertex 3 {m}
  0, 0, 2.4384;                           !- X,Y,Z Vertex 4 {m}

OS:Surface,
  {da480d8c-6538-4b2f-9ad3-2a8d414653a3}, !- Handle
  Surface 3,                              !- Name
  Wall,                                   !- Surface Type
  {5315c03f-0fbb-4e02-bba9-e09fec2fa940}, !- Construction Name
  {447ed6bd-5091-4e1b-af00-46af12810679}, !- Space Name
  Outdoors,                               !- Outside Boundary Condition
  ,                                       !- Outside Boundary Condition Object
  SunExposed,                             !- Sun Exposure
  WindExposed,                            !- Wind Exposure
  ,                                       !- View Factor to Ground
  ,                                       !- Number of Vertices
  10.099878114116, 5.61104339673113, 2.4384, !- X,Y,Z Vertex 1 {m}
  10.099878114116, 5.61104339673113, 0,   !- X,Y,Z Vertex 2 {m}
  0, 5.61104339673113, 0,                 !- X,Y,Z Vertex 3 {m}
  0, 5.61104339673113, 2.4384;            !- X,Y,Z Vertex 4 {m}

OS:Surface,
  {8ff8eb0c-048c-4f87-965a-98f4ba02c71e}, !- Handle
  Surface 4,                              !- Name
  Wall,                                   !- Surface Type
  {5315c03f-0fbb-4e02-bba9-e09fec2fa940}, !- Construction Name
  {447ed6bd-5091-4e1b-af00-46af12810679}, !- Space Name
  Outdoors,                               !- Outside Boundary Condition
  ,                                       !- Outside Boundary Condition Object
  SunExposed,                             !- Sun Exposure
  WindExposed,                            !- Wind Exposure
  ,                                       !- View Factor to Ground
  ,                                       !- Number of Vertices
  10.099878114116, 0, 2.4384,             !- X,Y,Z Vertex 1 {m}
  10.099878114116, 0, 0,                  !- X,Y,Z Vertex 2 {m}
  10.099878114116, 5.61104339673113, 0,   !- X,Y,Z Vertex 3 {m}
  10.099878114116, 5.61104339673113, 2.4384; !- X,Y,Z Vertex 4 {m}

OS:Surface,
  {34f1481e-0c6e-465a-a462-5d7a4ac0943d}, !- Handle
  Surface 5,                              !- Name
  Wall,                                   !- Surface Type
  {5315c03f-0fbb-4e02-bba9-e09fec2fa940}, !- Construction Name
  {447ed6bd-5091-4e1b-af00-46af12810679}, !- Space Name
  Outdoors,                               !- Outside Boundary Condition
  ,                                       !- Outside Boundary Condition Object
  SunExposed,                             !- Sun Exposure
  WindExposed,                            !- Wind Exposure
  ,                                       !- View Factor to Ground
  ,                                       !- Number of Vertices
  1.04865714285714, 0, 1.85507980088317e-07, !- X,Y,Z Vertex 1 {m}
  10.099878114116, 0, 0,                  !- X,Y,Z Vertex 2 {m}
  10.099878114116, 0, 2.4384,             !- X,Y,Z Vertex 3 {m}
  1.04865714285714, 0, 2.43839981449202;  !- X,Y,Z Vertex 4 {m}

OS:Surface,
  {03227ee1-c1d1-4ca1-812e-4fd6d0397160}, !- Handle
  Surface 6,                              !- Name
  RoofCeiling,                            !- Surface Type
  {4ec174e0-8652-4eec-bba7-808518f4c501}, !- Construction Name
  {447ed6bd-5091-4e1b-af00-46af12810679}, !- Space Name
  Surface,                                !- Outside Boundary Condition
  {4d122187-7965-4543-a62a-83fb6768d62f}, !- Outside Boundary Condition Object
  NoSun,                                  !- Sun Exposure
  NoWind,                                 !- Wind Exposure
  ,                                       !- View Factor to Ground
  ,                                       !- Number of Vertices
  10.099878114116, 0, 2.4384,             !- X,Y,Z Vertex 1 {m}
  10.099878114116, 5.61104339673113, 2.4384, !- X,Y,Z Vertex 2 {m}
  0, 5.61104339673113, 2.4384,            !- X,Y,Z Vertex 3 {m}
  0, 0, 2.4384;                           !- X,Y,Z Vertex 4 {m}

OS:SpaceType,
  {118b532d-a380-4283-9647-bd5d4ff635b4}, !- Handle
  Space Type 1,                           !- Name
  ,                                       !- Default Construction Set Name
  ,                                       !- Default Schedule Set Name
  {7f52c41c-e3b5-45c4-b06a-df1c0d5173d1}, !- Group Rendering Name
  ,                                       !- Design Specification Outdoor Air Object Name
  ,                                       !- Standards Template
  ,                                       !- Standards Building Type
  living;                                 !- Standards Space Type

OS:Surface,
  {4d122187-7965-4543-a62a-83fb6768d62f}, !- Handle
  Surface 7,                              !- Name
  Floor,                                  !- Surface Type
  {b065ffd1-37d5-4573-b581-2f264e172207}, !- Construction Name
  {ebd1636e-4c75-41b6-88d0-598bcbb2ba5c}, !- Space Name
  Surface,                                !- Outside Boundary Condition
  {03227ee1-c1d1-4ca1-812e-4fd6d0397160}, !- Outside Boundary Condition Object
  NoSun,                                  !- Sun Exposure
  NoWind,                                 !- Wind Exposure
  ,                                       !- View Factor to Ground
  ,                                       !- Number of Vertices
  0, 5.61104339673113, 0,                 !- X,Y,Z Vertex 1 {m}
  10.099878114116, 5.61104339673113, 0,   !- X,Y,Z Vertex 2 {m}
  10.099878114116, 0, 0,                  !- X,Y,Z Vertex 3 {m}
  0, 0, 0;                                !- X,Y,Z Vertex 4 {m}

OS:Surface,
  {b815abf0-a877-45c7-9024-a194eeeebc99}, !- Handle
  Surface 8,                              !- Name
  RoofCeiling,                            !- Surface Type
  {33276e61-53d7-4b08-93cf-28dda6a05547}, !- Construction Name
  {ebd1636e-4c75-41b6-88d0-598bcbb2ba5c}, !- Space Name
  Outdoors,                               !- Outside Boundary Condition
  ,                                       !- Outside Boundary Condition Object
  SunExposed,                             !- Sun Exposure
  WindExposed,                            !- Wind Exposure
  ,                                       !- View Factor to Ground
  ,                                       !- Number of Vertices
  10.099878114116, 2.80552169836556, 1.70756084918278, !- X,Y,Z Vertex 1 {m}
  0, 2.80552169836556, 1.70756084918278,  !- X,Y,Z Vertex 2 {m}
  0, 0, 0.3048,                           !- X,Y,Z Vertex 3 {m}
  10.099878114116, 0, 0.3048;             !- X,Y,Z Vertex 4 {m}

OS:Surface,
  {d3e305b2-c58e-46aa-8669-761cdbf3708a}, !- Handle
  Surface 9,                              !- Name
  RoofCeiling,                            !- Surface Type
  {33276e61-53d7-4b08-93cf-28dda6a05547}, !- Construction Name
  {ebd1636e-4c75-41b6-88d0-598bcbb2ba5c}, !- Space Name
  Outdoors,                               !- Outside Boundary Condition
  ,                                       !- Outside Boundary Condition Object
  SunExposed,                             !- Sun Exposure
  WindExposed,                            !- Wind Exposure
  ,                                       !- View Factor to Ground
  ,                                       !- Number of Vertices
  0, 2.80552169836556, 1.70756084918278,  !- X,Y,Z Vertex 1 {m}
  10.099878114116, 2.80552169836556, 1.70756084918278, !- X,Y,Z Vertex 2 {m}
  10.099878114116, 5.61104339673113, 0.304799999999999, !- X,Y,Z Vertex 3 {m}
  0, 5.61104339673113, 0.304799999999999; !- X,Y,Z Vertex 4 {m}

OS:Surface,
  {2a34a0e6-a627-4a41-b070-3015e00ea96e}, !- Handle
  Surface 10,                             !- Name
  Wall,                                   !- Surface Type
  {08af4c97-586b-4b3d-829e-d0620777b55f}, !- Construction Name
  {ebd1636e-4c75-41b6-88d0-598bcbb2ba5c}, !- Space Name
  Outdoors,                               !- Outside Boundary Condition
  ,                                       !- Outside Boundary Condition Object
  SunExposed,                             !- Sun Exposure
  WindExposed,                            !- Wind Exposure
  ,                                       !- View Factor to Ground
  ,                                       !- Number of Vertices
  0, 2.80552169836556, 1.40276084918278,  !- X,Y,Z Vertex 1 {m}
  0, 5.61104339673113, 0,                 !- X,Y,Z Vertex 2 {m}
  0, 0, 0;                                !- X,Y,Z Vertex 3 {m}

OS:Surface,
  {1f689033-aa28-4d3d-bbb9-cbecf174834d}, !- Handle
  Surface 11,                             !- Name
  Wall,                                   !- Surface Type
  {08af4c97-586b-4b3d-829e-d0620777b55f}, !- Construction Name
  {ebd1636e-4c75-41b6-88d0-598bcbb2ba5c}, !- Space Name
  Outdoors,                               !- Outside Boundary Condition
  ,                                       !- Outside Boundary Condition Object
  SunExposed,                             !- Sun Exposure
  WindExposed,                            !- Wind Exposure
  ,                                       !- View Factor to Ground
  ,                                       !- Number of Vertices
  10.099878114116, 2.80552169836556, 1.40276084918278, !- X,Y,Z Vertex 1 {m}
  10.099878114116, 0, 0,                  !- X,Y,Z Vertex 2 {m}
  10.099878114116, 5.61104339673113, 0;   !- X,Y,Z Vertex 3 {m}

OS:Space,
  {ebd1636e-4c75-41b6-88d0-598bcbb2ba5c}, !- Handle
  unfinished attic space,                 !- Name
  {1aaca7de-b11e-4563-8522-90144c1b3e75}, !- Space Type Name
  ,                                       !- Default Construction Set Name
  ,                                       !- Default Schedule Set Name
  -0,                                     !- Direction of Relative North {deg}
  0,                                      !- X Origin {m}
  0,                                      !- Y Origin {m}
  2.4384,                                 !- Z Origin {m}
  ,                                       !- Building Story Name
  {ba6e1349-0d9a-4b17-9d6f-25c6ebdbb628}; !- Thermal Zone Name

OS:ThermalZone,
  {ba6e1349-0d9a-4b17-9d6f-25c6ebdbb628}, !- Handle
  unfinished attic zone,                  !- Name
  ,                                       !- Multiplier
  ,                                       !- Ceiling Height {m}
  ,                                       !- Volume {m3}
  ,                                       !- Floor Area {m2}
  ,                                       !- Zone Inside Convection Algorithm
  ,                                       !- Zone Outside Convection Algorithm
  ,                                       !- Zone Conditioning Equipment List Name
  {a05833d2-9653-43e2-add6-b5fe57f09636}, !- Zone Air Inlet Port List
  {67b8492e-7435-4906-ae44-9658860729e4}, !- Zone Air Exhaust Port List
  {90e45e3d-3f3c-46ad-bb78-beb7123c26fa}, !- Zone Air Node Name
  {5da3799e-7919-4117-81f4-068bb9026589}, !- Zone Return Air Port List
  ,                                       !- Primary Daylighting Control Name
  ,                                       !- Fraction of Zone Controlled by Primary Daylighting Control
  ,                                       !- Secondary Daylighting Control Name
  ,                                       !- Fraction of Zone Controlled by Secondary Daylighting Control
  ,                                       !- Illuminance Map Name
  {a56e57de-1446-46a1-ac39-1c5435216402}, !- Group Rendering Name