
OS:Version,
  {dd555af5-6a96-4aa7-a853-97fcb5cc3e77}, !- Handle
  3.3.0;                                  !- Version Identifier

OS:Building,
  {8b37e9d1-e0f6-4610-92a9-cdce43734afc}, !- Handle
  Building 1,                             !- Name
  ,                                       !- Building Sector Type
  45,                                     !- North Axis {deg}
  ,                                       !- Nominal Floor to Floor Height {m}
  ,                                       !- Space Type Name
  ,                                       !- Default Construction Set Name
  ,                                       !- Default Schedule Set Name
  2,                                      !- Standards Number of Stories
  2,                                      !- Standards Number of Above Ground Stories
  ,                                       !- Standards Template
  singlefamilydetached,                   !- Standards Building Type
  1;                                      !- Standards Number of Living Units

OS:Facility,
  {bf3c51b4-9eda-4ccb-8189-7b8401beb876}; !- Handle

OS:Site,
  {473ea373-9680-44d0-bce6-33abf3e158ab}, !- Handle
  Denver-Aurora-Buckley AFB,              !- Name
  39.72,                                  !- Latitude {deg}
  -104.75,                                !- Longitude {deg}
  -7,                                     !- Time Zone {hr}
  1726,                                   !- Elevation {m}
  Suburbs;                                !- Terrain

OS:SimulationControl,
  {93406bbd-ecd1-46fd-9a70-1f4a82035a46}, !- Handle
  ,                                       !- Do Zone Sizing Calculation
  ,                                       !- Do System Sizing Calculation
  ,                                       !- Do Plant Sizing Calculation
  No;                                     !- Run Simulation for Sizing Periods

OS:Sizing:Parameters,
  {7df5e068-9fcd-4ac3-8ecf-bd78b6bd1ad0}, !- Handle
  1.25,                                   !- Heating Sizing Factor
  1.15;                                   !- Cooling Sizing Factor

OS:Timestep,
  {b9fb2b1a-d8b7-4fc3-b459-1084d395b869}, !- Handle
  4;                                      !- Number of Timesteps per Hour

OS:ShadowCalculation,
  {85ce6d3d-b135-4be5-8bbb-ab3ba03a7072}, !- Handle
  PolygonClipping,                        !- Shading Calculation Method
  ,                                       !- Shading Calculation Update Frequency Method
  20,                                     !- Shading Calculation Update Frequency
  200,                                    !- Maximum Figures in Shadow Overlap Calculations
  ,                                       !- Polygon Clipping Algorithm
  512,                                    !- Pixel Counting Resolution
  DetailedSkyDiffuseModeling,             !- Sky Diffuse Modeling Algorithm
  No,                                     !- Output External Shading Calculation Results
  No,                                     !- Disable Self-Shading Within Shading Zone Groups
  No;                                     !- Disable Self-Shading From Shading Zone Groups to Other Zones

OS:HeatBalanceAlgorithm,
  {4f143283-565a-4c92-bc5d-d196df90b436}, !- Handle
  ConductionTransferFunction,             !- Algorithm
  200;                                    !- Surface Temperature Upper Limit {C}

OS:RunPeriod,
  {1a845886-7c70-46a2-b26a-1126fb248d39}, !- Handle
  Run Period 1,                           !- Name
  1,                                      !- Begin Month
  1,                                      !- Begin Day of Month
  12,                                     !- End Month
  31,                                     !- End Day of Month
  ,                                       !- Use Weather File Holidays and Special Days
  ,                                       !- Use Weather File Daylight Saving Period
  ,                                       !- Apply Weekend Holiday Rule
  ,                                       !- Use Weather File Rain Indicators
  ,                                       !- Use Weather File Snow Indicators
  ;                                       !- Number of Times Runperiod to be Repeated

OS:LifeCycleCost:Parameters,
  {845dbb33-1c5c-40fe-97dc-d124824c1491}, !- Handle
  ,                                       !- Analysis Type
  ,                                       !- Discounting Convention
  ,                                       !- Inflation Approach
  ,                                       !- Real Discount Rate
  ,                                       !- Nominal Discount Rate
  ,                                       !- Inflation
  ,                                       !- Base Date Month
  ,                                       !- Base Date Year
  ,                                       !- Service Date Month
  ,                                       !- Service Date Year
  ;                                       !- Length of Study Period in Years

OS:SurfaceConvectionAlgorithm:Outside,
  {c939885f-7123-4ed8-abda-eee99388bee1}, !- Handle
  DOE-2;                                  !- Algorithm

OS:SurfaceConvectionAlgorithm:Inside,
  {c6aac43e-3f54-458a-ac2e-8ed2a09cd235}, !- Handle
  TARP;                                   !- Algorithm

OS:ZoneCapacitanceMultiplier:ResearchSpecial,
  {ce326b7e-2029-4ef2-9ada-ac4ca6b5854d}, !- Handle
  ,                                       !- Temperature Capacity Multiplier
  15,                                     !- Humidity Capacity Multiplier
  ;                                       !- Carbon Dioxide Capacity Multiplier

OS:YearDescription,
  {cacec419-602b-455f-a131-4ec24b8077ca}, !- Handle
  ,                                       !- Calendar Year
  Sunday,                                 !- Day of Week for Start Day
  ;                                       !- Is Leap Year

OS:AdditionalProperties,
  {54a4e1a1-a1f7-48c9-92d9-aedc3816f90a}, !- Handle
  {8b37e9d1-e0f6-4610-92a9-cdce43734afc}, !- Object Name
  Building ID,                            !- Feature Name 1
  Integer,                                !- Feature Data Type 1
  2876,                                   !- Feature Value 1
  num_occupants,                          !- Feature Name 2
  Integer,                                !- Feature Data Type 2
  1,                                      !- Feature Value 2
  Schedules Path,                         !- Feature Name 3
  String,                                 !- Feature Data Type 3
  /var/simdata/openstudio/run/schedules.csv, !- Feature Value 3
  Total Units Modeled,                    !- Feature Name 4
  Integer,                                !- Feature Data Type 4
  1,                                      !- Feature Value 4
  has_water_heater_flue,                  !- Feature Name 5
  Boolean,                                !- Feature Data Type 5
  false,                                  !- Feature Value 5
  has_fireplace_chimney,                  !- Feature Name 6
  Boolean,                                !- Feature Data Type 6
  false;                                  !- Feature Value 6

OS:ClimateZones,
  {58b84643-e1a1-4efb-8c40-702a7beee98b}, !- Handle
  Building America,                       !- Climate Zone Institution Name 1
  ,                                       !- Climate Zone Document Name 1
  0,                                      !- Climate Zone Document Year 1
  Mixed-Humid,                            !- Climate Zone Value 1
  ASHRAE,                                 !- Climate Zone Institution Name 2
  ANSI/ASHRAE Standard 169,               !- Climate Zone Document Name 2
  2006,                                   !- Climate Zone Document Year 2
  ,                                       !- Climate Zone Value 2
  CEC,                                    !- Climate Zone Institution Name 3
  California Climate Zone Descriptions,   !- Climate Zone Document Name 3
  1995,                                   !- Climate Zone Document Year 3
  ;                                       !- Climate Zone Value 3

OS:Site:WaterMainsTemperature,
  {b95b3fdd-5213-458a-96c9-54c52b45b6b2}, !- Handle
  Correlation,                            !- Calculation Method
  ,                                       !- Temperature Schedule Name
  16.5855479452055,                       !- Annual Average Outdoor Air Temperature {C}
  22.4263440860215;                       !- Maximum Difference In Monthly Average Outdoor Air Temperatures {deltaC}

OS:RunPeriodControl:DaylightSavingTime,
  {c53e88a7-de01-4d58-a8e3-5ff28501bbe5}, !- Handle
  3/10,                                   !- Start Date
  11/3;                                   !- End Date

OS:Site:GroundTemperature:Deep,
  {a9b1dc82-3ed0-4181-96a3-3ba088a039ab}, !- Handle
  16.5855479452055,                       !- January Deep Ground Temperature {C}
  16.5855479452055,                       !- February Deep Ground Temperature {C}
  16.5855479452055,                       !- March Deep Ground Temperature {C}
  16.5855479452055,                       !- April Deep Ground Temperature {C}
  16.5855479452055,                       !- May Deep Ground Temperature {C}
  16.5855479452055,                       !- June Deep Ground Temperature {C}
  16.5855479452055,                       !- July Deep Ground Temperature {C}
  16.5855479452055,                       !- August Deep Ground Temperature {C}
  16.5855479452055,                       !- September Deep Ground Temperature {C}
  16.5855479452055,                       !- October Deep Ground Temperature {C}
  16.5855479452055,                       !- November Deep Ground Temperature {C}
  16.5855479452055;                       !- December Deep Ground Temperature {C}

OS:ThermalZone,
  {d1a1a08c-276b-414c-b1bf-2f905a29db0d}, !- Handle
  living zone,                            !- Name
  ,                                       !- Multiplier
  ,                                       !- Ceiling Height {m}
  ,                                       !- Volume {m3}
  ,                                       !- Floor Area {m2}
  ,                                       !- Zone Inside Convection Algorithm
  ,                                       !- Zone Outside Convection Algorithm
  ,                                       !- Zone Conditioning Equipment List Name
  {54d587bc-eda2-42f3-9c15-dcbb7711fd7b}, !- Zone Air Inlet Port List
  {77c95941-027b-4621-aa05-4f6757a2f534}, !- Zone Air Exhaust Port List
  {073df6a3-4478-4212-a544-ed1ca08c08df}, !- Zone Air Node Name
  {b85bb0c8-1a05-47cf-8060-f905f575017d}, !- Zone Return Air Port List
  ,                                       !- Primary Daylighting Control Name
  ,                                       !- Fraction of Zone Controlled by Primary Daylighting Control
  ,                                       !- Secondary Daylighting Control Name
  ,                                       !- Fraction of Zone Controlled by Secondary Daylighting Control
  ,                                       !- Illuminance Map Name
  {8d442554-9bc1-4669-8da8-546dd3eb29d0}, !- Group Rendering Name
  {e629e713-19a4-49f4-9c26-cae44393c98f}, !- Thermostat Name
  No;                                     !- Use Ideal Air Loads

OS:Node,
  {36befa12-8b41-476d-8952-99c8111500ed}, !- Handle
  Node 1,                                 !- Name
  {073df6a3-4478-4212-a544-ed1ca08c08df}, !- Inlet Port
  ;                                       !- Outlet Port

OS:Connection,
  {073df6a3-4478-4212-a544-ed1ca08c08df}, !- Handle
  {d1a1a08c-276b-414c-b1bf-2f905a29db0d}, !- Source Object
  11,                                     !- Outlet Port
  {36befa12-8b41-476d-8952-99c8111500ed}, !- Target Object
  2;                                      !- Inlet Port

OS:PortList,
  {54d587bc-eda2-42f3-9c15-dcbb7711fd7b}, !- Handle
  {d1a1a08c-276b-414c-b1bf-2f905a29db0d}; !- HVAC Component

OS:PortList,
  {77c95941-027b-4621-aa05-4f6757a2f534}, !- Handle
  {d1a1a08c-276b-414c-b1bf-2f905a29db0d}; !- HVAC Component

OS:PortList,
  {b85bb0c8-1a05-47cf-8060-f905f575017d}, !- Handle
  {d1a1a08c-276b-414c-b1bf-2f905a29db0d}; !- HVAC Component

OS:Sizing:Zone,
  {39e7c939-cdba-439b-8ba1-ebc8e771590d}, !- Handle
  {d1a1a08c-276b-414c-b1bf-2f905a29db0d}, !- Zone or ZoneList Name
  SupplyAirTemperature,                   !- Zone Cooling Design Supply Air Temperature Input Method
  14,                                     !- Zone Cooling Design Supply Air Temperature {C}
  11.11,                                  !- Zone Cooling Design Supply Air Temperature Difference {deltaC}
  SupplyAirTemperature,                   !- Zone Heating Design Supply Air Temperature Input Method
  40,                                     !- Zone Heating Design Supply Air Temperature {C}
  11.11,                                  !- Zone Heating Design Supply Air Temperature Difference {deltaC}
  0.0085,                                 !- Zone Cooling Design Supply Air Humidity Ratio {kg-H2O/kg-air}
  0.008,                                  !- Zone Heating Design Supply Air Humidity Ratio {kg-H2O/kg-air}
  ,                                       !- Zone Heating Sizing Factor
  ,                                       !- Zone Cooling Sizing Factor
  DesignDay,                              !- Cooling Design Air Flow Method
  ,                                       !- Cooling Design Air Flow Rate {m3/s}
  ,                                       !- Cooling Minimum Air Flow per Zone Floor Area {m3/s-m2}
  ,                                       !- Cooling Minimum Air Flow {m3/s}
  ,                                       !- Cooling Minimum Air Flow Fraction
  DesignDay,                              !- Heating Design Air Flow Method
  ,                                       !- Heating Design Air Flow Rate {m3/s}
  ,                                       !- Heating Maximum Air Flow per Zone Floor Area {m3/s-m2}
  ,                                       !- Heating Maximum Air Flow {m3/s}
  ,                                       !- Heating Maximum Air Flow Fraction
  No,                                     !- Account for Dedicated Outdoor Air System
  NeutralSupplyAir,                       !- Dedicated Outdoor Air System Control Strategy
  autosize,                               !- Dedicated Outdoor Air Low Setpoint Temperature for Design {C}
  autosize;                               !- Dedicated Outdoor Air High Setpoint Temperature for Design {C}

OS:ZoneHVAC:EquipmentList,
  {b8a0c490-457b-412d-bf45-fc0924964185}, !- Handle
  Zone HVAC Equipment List 1,             !- Name
  {d1a1a08c-276b-414c-b1bf-2f905a29db0d}, !- Thermal Zone
  SequentialLoad,                         !- Load Distribution Scheme
  {783cdccf-3bfa-45f4-aa8d-c69d6ae4ee58}, !- Zone Equipment 1
  1,                                      !- Zone Equipment Cooling Sequence 1
  1,                                      !- Zone Equipment Heating or No-Load Sequence 1
  ,                                       !- Zone Equipment Sequential Cooling Fraction Schedule Name 1
  ;                                       !- Zone Equipment Sequential Heating Fraction Schedule Name 1

OS:ThermalZone,
  {dfbb4e6b-b8a7-45c0-b552-ab38ae50a809}, !- Handle
  garage zone,                            !- Name
  ,                                       !- Multiplier
  ,                                       !- Ceiling Height {m}
  ,                                       !- Volume {m3}
  ,                                       !- Floor Area {m2}
  ,                                       !- Zone Inside Convection Algorithm
  ,                                       !- Zone Outside Convection Algorithm
  ,                                       !- Zone Conditioning Equipment List Name
  {284eefb9-f5fb-4e7a-b54b-3d5d80997387}, !- Zone Air Inlet Port List
  {956a5464-9e1d-4bcb-8116-d676aaa0a21b}, !- Zone Air Exhaust Port List
  {c529b330-72c9-4cb0-8dc0-40f4766cbd0f}, !- Zone Air Node Name
  {c7ea33ac-3ac0-4a69-9ee1-63e0ea544815}, !- Zone Return Air Port List
  ,                                       !- Primary Daylighting Control Name
  ,                                       !- Fraction of Zone Controlled by Primary Daylighting Control
  ,                                       !- Secondary Daylighting Control Name
  ,                                       !- Fraction of Zone Controlled by Secondary Daylighting Control
  ,                                       !- Illuminance Map Name
  {2cb0fa65-4fdb-4225-a09a-852dc53a9028}, !- Group Rendering Name
  ,                                       !- Thermostat Name
  No;                                     !- Use Ideal Air Loads

OS:Node,
  {dd9422de-a576-4674-b420-a1383c915569}, !- Handle
  Node 2,                                 !- Name
  {c529b330-72c9-4cb0-8dc0-40f4766cbd0f}, !- Inlet Port
  ;                                       !- Outlet Port

OS:Connection,
  {c529b330-72c9-4cb0-8dc0-40f4766cbd0f}, !- Handle
  {dfbb4e6b-b8a7-45c0-b552-ab38ae50a809}, !- Source Object
  11,                                     !- Outlet Port
  {dd9422de-a576-4674-b420-a1383c915569}, !- Target Object
  2;                                      !- Inlet Port

OS:PortList,
  {284eefb9-f5fb-4e7a-b54b-3d5d80997387}, !- Handle
  {dfbb4e6b-b8a7-45c0-b552-ab38ae50a809}; !- HVAC Component

OS:PortList,
  {956a5464-9e1d-4bcb-8116-d676aaa0a21b}, !- Handle
  {dfbb4e6b-b8a7-45c0-b552-ab38ae50a809}; !- HVAC Component

OS:PortList,
  {c7ea33ac-3ac0-4a69-9ee1-63e0ea544815}, !- Handle
  {dfbb4e6b-b8a7-45c0-b552-ab38ae50a809}; !- HVAC Component

OS:Sizing:Zone,
  {69be2c54-a884-4494-b46c-4360ee445229}, !- Handle
  {dfbb4e6b-b8a7-45c0-b552-ab38ae50a809}, !- Zone or ZoneList Name
  SupplyAirTemperature,                   !- Zone Cooling Design Supply Air Temperature Input Method
  14,                                     !- Zone Cooling Design Supply Air Temperature {C}
  11.11,                                  !- Zone Cooling Design Supply Air Temperature Difference {deltaC}
  SupplyAirTemperature,                   !- Zone Heating Design Supply Air Temperature Input Method
  40,                                     !- Zone Heating Design Supply Air Temperature {C}
  11.11,                                  !- Zone Heating Design Supply Air Temperature Difference {deltaC}
  0.0085,                                 !- Zone Cooling Design Supply Air Humidity Ratio {kg-H2O/kg-air}
  0.008,                                  !- Zone Heating Design Supply Air Humidity Ratio {kg-H2O/kg-air}
  ,                                       !- Zone Heating Sizing Factor
  ,                                       !- Zone Cooling Sizing Factor
  DesignDay,                              !- Cooling Design Air Flow Method
  ,                                       !- Cooling Design Air Flow Rate {m3/s}
  ,                                       !- Cooling Minimum Air Flow per Zone Floor Area {m3/s-m2}
  ,                                       !- Cooling Minimum Air Flow {m3/s}
  ,                                       !- Cooling Minimum Air Flow Fraction
  DesignDay,                              !- Heating Design Air Flow Method
  ,                                       !- Heating Design Air Flow Rate {m3/s}
  ,                                       !- Heating Maximum Air Flow per Zone Floor Area {m3/s-m2}
  ,                                       !- Heating Maximum Air Flow {m3/s}
  ,                                       !- Heating Maximum Air Flow Fraction
  No,                                     !- Account for Dedicated Outdoor Air System
  NeutralSupplyAir,                       !- Dedicated Outdoor Air System Control Strategy
  autosize,                               !- Dedicated Outdoor Air Low Setpoint Temperature for Design {C}
  autosize;                               !- Dedicated Outdoor Air High Setpoint Temperature for Design {C}

OS:ZoneHVAC:EquipmentList,
  {3e587d01-999f-42ce-9a56-4c2c879f9f78}, !- Handle
  Zone HVAC Equipment List 2,             !- Name
  {dfbb4e6b-b8a7-45c0-b552-ab38ae50a809}; !- Thermal Zone

OS:Space,
  {9628effc-7aea-4809-a224-fec9385b1eff}, !- Handle
  garage space,                           !- Name
  {295afd02-d706-421a-901b-4bb7abe433f4}, !- Space Type Name
  ,                                       !- Default Construction Set Name
  ,                                       !- Default Schedule Set Name
  -0,                                     !- Direction of Relative North {deg}
  0,                                      !- X Origin {m}
  0,                                      !- Y Origin {m}
  0,                                      !- Z Origin {m}
  ,                                       !- Building Story Name
  {dfbb4e6b-b8a7-45c0-b552-ab38ae50a809}; !- Thermal Zone Name

OS:Surface,
  {2d75a202-3a67-4d24-9589-2c82fffb04f1}, !- Handle
  Surface 1,                              !- Name
  Floor,                                  !- Surface Type
  {61cfa0d8-3ccb-4bc0-a73b-6407f6f21c6d}, !- Construction Name
  {9628effc-7aea-4809-a224-fec9385b1eff}, !- Space Name
  Foundation,                             !- Outside Boundary Condition
  {c70eb26b-53c5-4bbc-899f-e1fb6fa55041}, !- Outside Boundary Condition Object
  NoSun,                                  !- Sun Exposure
  NoWind,                                 !- Wind Exposure
  ,                                       !- View Factor to Ground
  ,                                       !- Number of Vertices
  4.572, -3.6576, 0,                      !- X,Y,Z Vertex 1 {m}
  4.572, 3.6576, 0,                       !- X,Y,Z Vertex 2 {m}
  11.8872, 3.6576, 0,                     !- X,Y,Z Vertex 3 {m}
  11.8872, -3.6576, 0;                    !- X,Y,Z Vertex 4 {m}

OS:Surface,
  {6e8640db-1471-48ba-8482-d780bf5ccdf4}, !- Handle
  Surface 2,                              !- Name
  Wall,                                   !- Surface Type
  {a868bb24-7b17-4cc9-94d9-544d559ba3dd}, !- Construction Name
  {9628effc-7aea-4809-a224-fec9385b1eff}, !- Space Name
  Surface,                                !- Outside Boundary Condition
  {f60ead15-88e3-466b-9e2d-2972093196bd}, !- Outside Boundary Condition Object
  NoSun,                                  !- Sun Exposure
  NoWind,                                 !- Wind Exposure
  ,                                       !- View Factor to Ground
  ,                                       !- Number of Vertices
  4.572, 3.6576, 2.4384,                  !- X,Y,Z Vertex 1 {m}
  4.572, 3.6576, 0,                       !- X,Y,Z Vertex 2 {m}
  4.572, 0, 0,                            !- X,Y,Z Vertex 3 {m}
  4.572, 0, 2.4384;                       !- X,Y,Z Vertex 4 {m}

OS:Surface,
  {2fc664a6-8022-4e4a-9770-0872e807a82d}, !- Handle
  Surface 3,                              !- Name
  Wall,                                   !- Surface Type
  {a868bb24-7b17-4cc9-94d9-544d559ba3dd}, !- Construction Name
  {9628effc-7aea-4809-a224-fec9385b1eff}, !- Space Name
  Surface,                                !- Outside Boundary Condition
  {0c4fbfb1-a463-4de0-aec4-a380279b4c73}, !- Outside Boundary Condition Object
  NoSun,                                  !- Sun Exposure
  NoWind,                                 !- Wind Exposure
  ,                                       !- View Factor to Ground
  ,                                       !- Number of Vertices
  11.8872, 3.6576, 2.4384,                !- X,Y,Z Vertex 1 {m}
  11.8872, 3.6576, 0,                     !- X,Y,Z Vertex 2 {m}
  4.572, 3.6576, 0,                       !- X,Y,Z Vertex 3 {m}
  4.572, 3.6576, 2.4384;                  !- X,Y,Z Vertex 4 {m}

OS:Surface,
  {64f4b9d4-7a97-44ca-a211-b55675686304}, !- Handle
  Surface 4,                              !- Name
  Wall,                                   !- Surface Type
  {c31be437-7aba-4ce8-9f0d-fef616585414}, !- Construction Name
  {9628effc-7aea-4809-a224-fec9385b1eff}, !- Space Name
  Outdoors,                               !- Outside Boundary Condition
  ,                                       !- Outside Boundary Condition Object
  SunExposed,                             !- Sun Exposure
  WindExposed,                            !- Wind Exposure
  ,                                       !- View Factor to Ground
  ,                                       !- Number of Vertices
  11.8872, -3.6576, 2.4384,               !- X,Y,Z Vertex 1 {m}
  11.8872, -3.6576, 0,                    !- X,Y,Z Vertex 2 {m}
  11.8872, 3.6576, 0,                     !- X,Y,Z Vertex 3 {m}
  11.8872, 3.6576, 2.4384;                !- X,Y,Z Vertex 4 {m}

OS:Surface,
  {8d9f74a5-7b31-4c23-833a-19ede98524ca}, !- Handle
  Surface 5,                              !- Name
  Wall,                                   !- Surface Type
  {c31be437-7aba-4ce8-9f0d-fef616585414}, !- Construction Name
  {9628effc-7aea-4809-a224-fec9385b1eff}, !- Space Name
  Outdoors,                               !- Outside Boundary Condition
  ,                                       !- Outside Boundary Condition Object
  SunExposed,                             !- Sun Exposure
  WindExposed,                            !- Wind Exposure
  ,                                       !- View Factor to Ground
  ,                                       !- Number of Vertices
  4.572, -3.6576, 2.4384,                 !- X,Y,Z Vertex 1 {m}
  4.572, -3.6576, 0,                      !- X,Y,Z Vertex 2 {m}
  11.8872, -3.6576, 0,                    !- X,Y,Z Vertex 3 {m}
  11.8872, -3.6576, 2.4384;               !- X,Y,Z Vertex 4 {m}

OS:Surface,
  {fa310d35-fc1e-434c-ba9b-93b154e5b219}, !- Handle
  Surface 6,                              !- Name
  RoofCeiling,                            !- Surface Type
  {464eb355-10cc-4c70-8e1e-3fc3fc0668c5}, !- Construction Name
  {9628effc-7aea-4809-a224-fec9385b1eff}, !- Space Name
  Surface,                                !- Outside Boundary Condition
  {989e67d5-42e6-4c5a-8525-7dca95123692}, !- Outside Boundary Condition Object
  NoSun,                                  !- Sun Exposure
  NoWind,                                 !- Wind Exposure
  ,                                       !- View Factor to Ground
  ,                                       !- Number of Vertices
  11.8872, -3.6576, 2.4384,               !- X,Y,Z Vertex 1 {m}
  11.8872, 3.6576, 2.4384,                !- X,Y,Z Vertex 2 {m}
  4.572, 3.6576, 2.4384,                  !- X,Y,Z Vertex 3 {m}
  4.572, -3.6576, 2.4384;                 !- X,Y,Z Vertex 4 {m}

OS:SpaceType,
  {295afd02-d706-421a-901b-4bb7abe433f4}, !- Handle
  Space Type 1,                           !- Name
  ,                                       !- Default Construction Set Name
  ,                                       !- Default Schedule Set Name
  ,                                       !- Group Rendering Name
  ,                                       !- Design Specification Outdoor Air Object Name
  ,                                       !- Standards Template
  ,                                       !- Standards Building Type
  garage;                                 !- Standards Space Type

OS:Space,
  {828eca1e-8bd3-4ce8-947e-5cfa03c56d12}, !- Handle
  living space,                           !- Name
  {b35ba909-9ce2-4015-9aa8-243458f89977}, !- Space Type Name
  ,                                       !- Default Construction Set Name
  ,                                       !- Default Schedule Set Name
  -0,                                     !- Direction of Relative North {deg}
  0,                                      !- X Origin {m}
  0,                                      !- Y Origin {m}
  0,                                      !- Z Origin {m}
  ,                                       !- Building Story Name
  {d1a1a08c-276b-414c-b1bf-2f905a29db0d}, !- Thermal Zone Name
  ,                                       !- Part of Total Floor Area
  ,                                       !- Design Specification Outdoor Air Object Name
  {9c8f630e-c9c1-442e-8f43-5dd2d81c4b45}; !- Building Unit Name

OS:Surface,
  {f7dfa08a-c039-44cb-9859-248135b49a70}, !- Handle
  Surface 7,                              !- Name
  Floor,                                  !- Surface Type
  {bd807c76-476f-4b27-9669-b637214aa843}, !- Construction Name
  {828eca1e-8bd3-4ce8-947e-5cfa03c56d12}, !- Space Name
  Foundation,                             !- Outside Boundary Condition
  {212c21a8-1b26-4243-a67c-74e3acbd6bc5}, !- Outside Boundary Condition Object
  NoSun,                                  !- Sun Exposure
  NoWind,                                 !- Wind Exposure
  ,                                       !- View Factor to Ground
  ,                                       !- Number of Vertices
  0, 0, 0,                                !- X,Y,Z Vertex 1 {m}
  0, 6.604, 0,                            !- X,Y,Z Vertex 2 {m}
  11.8872, 6.604, 0,                      !- X,Y,Z Vertex 3 {m}
  11.8872, 3.6576, 0,                     !- X,Y,Z Vertex 4 {m}
  4.572, 3.6576, 0,                       !- X,Y,Z Vertex 5 {m}
  4.572, 0, 0;                            !- X,Y,Z Vertex 6 {m}

OS:Surface,
  {353d8838-f53c-4af5-8809-962306558208}, !- Handle
  Surface 8,                              !- Name
  Wall,                                   !- Surface Type
  {47fa469f-9b6b-4801-943f-3feff32154b0}, !- Construction Name
  {828eca1e-8bd3-4ce8-947e-5cfa03c56d12}, !- Space Name
  Outdoors,                               !- Outside Boundary Condition
  ,                                       !- Outside Boundary Condition Object
  SunExposed,                             !- Sun Exposure
  WindExposed,                            !- Wind Exposure
  ,                                       !- View Factor to Ground
  ,                                       !- Number of Vertices
  0, 6.604, 2.4384,                       !- X,Y,Z Vertex 1 {m}
  0, 6.604, 0,                            !- X,Y,Z Vertex 2 {m}
  0, 0, 0,                                !- X,Y,Z Vertex 3 {m}
  0, 0, 2.4384;                           !- X,Y,Z Vertex 4 {m}
