
OS:Version,
  {27d2ffec-da59-4337-8b33-b0d6330f85be}, !- Handle
  3.3.0;                                  !- Version Identifier

OS:Building,
  {dda2f7b4-1c0f-4a57-9fd9-46449a9c5527}, !- Handle
  Building 1,                             !- Name
  ,                                       !- Building Sector Type
  0,                                      !- North Axis {deg}
  ,                                       !- Nominal Floor to Floor Height {m}
  ,                                       !- Space Type Name
  ,                                       !- Default Construction Set Name
  ,                                       !- Default Schedule Set Name
  1,                                      !- Standards Number of Stories
  1,                                      !- Standards Number of Above Ground Stories
  ,                                       !- Standards Template
  singlefamilydetached,                   !- Standards Building Type
  1;                                      !- Standards Number of Living Units

OS:Facility,
  {292b7b5f-1cc6-463c-8c8a-35ee9f2af8d5}; !- Handle

OS:Site,
  {b8c86c3a-8eb9-4ac5-a75e-b746239244c2}, !- Handle
  Denver-Aurora-Buckley AFB,              !- Name
  39.72,                                  !- Latitude {deg}
  -104.75,                                !- Longitude {deg}
  -7,                                     !- Time Zone {hr}
  1726,                                   !- Elevation {m}
  Suburbs;                                !- Terrain

OS:SimulationControl,
  {983717c2-ddf1-4ec2-a210-071524b5c65c}, !- Handle
  ,                                       !- Do Zone Sizing Calculation
  ,                                       !- Do System Sizing Calculation
  ,                                       !- Do Plant Sizing Calculation
  No;                                     !- Run Simulation for Sizing Periods

OS:Sizing:Parameters,
  {29c54d88-2265-45da-9402-91970c734d99}, !- Handle
  1.25,                                   !- Heating Sizing Factor
  1.15;                                   !- Cooling Sizing Factor

OS:Timestep,
  {28ae6466-67c2-4967-9dce-9bac82c5d70a}, !- Handle
  4;                                      !- Number of Timesteps per Hour

OS:ShadowCalculation,
  {d1eef134-7a53-4c03-82b9-2e6ed0317129}, !- Handle
  PolygonClipping,                        !- Shading Calculation Method
  ,                                       !- Shading Calculation Update Frequency Method
  20,                                     !- Shading Calculation Update Frequency
  200,                                    !- Maximum Figures in Shadow Overlap Calculations
  ,                                       !- Polygon Clipping Algorithm
  512,                                    !- Pixel Counting Resolution
  DetailedSkyDiffuseModeling,             !- Sky Diffuse Modeling Algorithm
  No,                                     !- Output External Shading Calculation Results
  No,                                     !- Disable Self-Shading Within Shading Zone Groups
  No;                                     !- Disable Self-Shading From Shading Zone Groups to Other Zones

OS:HeatBalanceAlgorithm,
  {f7a9edf0-c1e0-4e9c-a1b3-8764cedd3fd4}, !- Handle
  ConductionTransferFunction,             !- Algorithm
  200;                                    !- Surface Temperature Upper Limit {C}

OS:RunPeriod,
  {7261d950-a2d3-44e1-8573-397d2bb22a55}, !- Handle
  Run Period 1,                           !- Name
  1,                                      !- Begin Month
  1,                                      !- Begin Day of Month
  12,                                     !- End Month
  31,                                     !- End Day of Month
  ,                                       !- Use Weather File Holidays and Special Days
  ,                                       !- Use Weather File Daylight Saving Period
  ,                                       !- Apply Weekend Holiday Rule
  ,                                       !- Use Weather File Rain Indicators
  ,                                       !- Use Weather File Snow Indicators
  ;                                       !- Number of Times Runperiod to be Repeated

OS:LifeCycleCost:Parameters,
  {5f44cd4b-58b0-4295-96e7-bba3c1f77f1f}, !- Handle
  ,                                       !- Analysis Type
  ,                                       !- Discounting Convention
  ,                                       !- Inflation Approach
  ,                                       !- Real Discount Rate
  ,                                       !- Nominal Discount Rate
  ,                                       !- Inflation
  ,                                       !- Base Date Month
  ,                                       !- Base Date Year
  ,                                       !- Service Date Month
  ,                                       !- Service Date Year
  ;                                       !- Length of Study Period in Years

OS:SurfaceConvectionAlgorithm:Outside,
  {557d46fa-4e6e-4586-8c93-33b850e84fe9}, !- Handle
  DOE-2;                                  !- Algorithm

OS:SurfaceConvectionAlgorithm:Inside,
  {b751d86e-34c5-4fb4-9f3b-52af5f458756}, !- Handle
  TARP;                                   !- Algorithm

OS:ZoneCapacitanceMultiplier:ResearchSpecial,
  {d6f7243e-ed07-4edc-b8ea-4287323d5f15}, !- Handle
  ,                                       !- Temperature Capacity Multiplier
  15,                                     !- Humidity Capacity Multiplier
  ;                                       !- Carbon Dioxide Capacity Multiplier

OS:YearDescription,
  {c817d299-5bff-44a6-b4be-0725d1ab8b83}, !- Handle
  ,                                       !- Calendar Year
  Sunday,                                 !- Day of Week for Start Day
  ;                                       !- Is Leap Year

OS:AdditionalProperties,
  {4fc24ea3-c898-4ea6-a935-8033784f44fa}, !- Handle
  {dda2f7b4-1c0f-4a57-9fd9-46449a9c5527}, !- Object Name
  Building ID,                            !- Feature Name 1
  Integer,                                !- Feature Data Type 1
  79435,                                  !- Feature Value 1
  num_occupants,                          !- Feature Name 2
  Integer,                                !- Feature Data Type 2
  1,                                      !- Feature Value 2
  Schedules Path,                         !- Feature Name 3
  String,                                 !- Feature Data Type 3
  /var/simdata/openstudio/run/schedules.csv, !- Feature Value 3
  Total Units Modeled,                    !- Feature Name 4
  Integer,                                !- Feature Data Type 4
  1,                                      !- Feature Value 4
  has_water_heater_flue,                  !- Feature Name 5
  Boolean,                                !- Feature Data Type 5
  true,                                   !- Feature Value 5
  has_hvac_flue,                          !- Feature Name 6
  Boolean,                                !- Feature Data Type 6
  true,                                   !- Feature Value 6
  has_fireplace_chimney,                  !- Feature Name 7
  Boolean,                                !- Feature Data Type 7
  false;                                  !- Feature Value 7

OS:ClimateZones,
  {f46ba7c2-acc8-4fe5-89e0-e46337196ce5}, !- Handle
  Building America,                       !- Climate Zone Institution Name 1
  ,                                       !- Climate Zone Document Name 1
  0,                                      !- Climate Zone Document Year 1
  Hot-Dry,                                !- Climate Zone Value 1
  ASHRAE,                                 !- Climate Zone Institution Name 2
  ANSI/ASHRAE Standard 169,               !- Climate Zone Document Name 2
  2006,                                   !- Climate Zone Document Year 2
  ,                                       !- Climate Zone Value 2
  CEC,                                    !- Climate Zone Institution Name 3
  California Climate Zone Descriptions,   !- Climate Zone Document Name 3
  1995,                                   !- Climate Zone Document Year 3
  ;                                       !- Climate Zone Value 3

OS:Site:WaterMainsTemperature,
  {07d2ed44-cb64-442f-960e-4364f8ae63a2}, !- Handle
  Correlation,                            !- Calculation Method
  ,                                       !- Temperature Schedule Name
  18.506187214612,                        !- Annual Average Outdoor Air Temperature {C}
  18.5790322580645;                       !- Maximum Difference In Monthly Average Outdoor Air Temperatures {deltaC}

OS:RunPeriodControl:DaylightSavingTime,
  {d41dbcf6-5dee-4636-9421-be0e09b4d286}, !- Handle
  3/10,                                   !- Start Date
  11/3;                                   !- End Date

OS:Site:GroundTemperature:Deep,
  {3a877eca-01c0-4162-af25-deefb967ce3d}, !- Handle
  18.506187214612,                        !- January Deep Ground Temperature {C}
  18.506187214612,                        !- February Deep Ground Temperature {C}
  18.506187214612,                        !- March Deep Ground Temperature {C}
  18.506187214612,                        !- April Deep Ground Temperature {C}
  18.506187214612,                        !- May Deep Ground Temperature {C}
  18.506187214612,                        !- June Deep Ground Temperature {C}
  18.506187214612,                        !- July Deep Ground Temperature {C}
  18.506187214612,                        !- August Deep Ground Temperature {C}
  18.506187214612,                        !- September Deep Ground Temperature {C}
  18.506187214612,                        !- October Deep Ground Temperature {C}
  18.506187214612,                        !- November Deep Ground Temperature {C}
  18.506187214612;                        !- December Deep Ground Temperature {C}

OS:ThermalZone,
  {bc9df750-1d3e-473a-bc86-7af0279354ca}, !- Handle
  living zone,                            !- Name
  ,                                       !- Multiplier
  ,                                       !- Ceiling Height {m}
  ,                                       !- Volume {m3}
  ,                                       !- Floor Area {m2}
  ,                                       !- Zone Inside Convection Algorithm
  ,                                       !- Zone Outside Convection Algorithm
  ,                                       !- Zone Conditioning Equipment List Name
  {cc977cdf-dbc3-4bf3-a6fe-64943870eab7}, !- Zone Air Inlet Port List
  {4076b5f7-2f58-44eb-9684-119dc3d64cad}, !- Zone Air Exhaust Port List
  {b50d476c-379c-4752-943f-3dc93e67714b}, !- Zone Air Node Name
  {2fd6308b-049f-4d9c-8d1a-5fc971f3c807}, !- Zone Return Air Port List
  ,                                       !- Primary Daylighting Control Name
  ,                                       !- Fraction of Zone Controlled by Primary Daylighting Control
  ,                                       !- Secondary Daylighting Control Name
  ,                                       !- Fraction of Zone Controlled by Secondary Daylighting Control
  ,                                       !- Illuminance Map Name
  ,                                       !- Group Rendering Name
  {b9be13a3-8128-4396-a893-a5017c5c5174}, !- Thermostat Name
  No;                                     !- Use Ideal Air Loads

OS:Node,
  {fc8cf21a-a048-40c6-858a-c7760eef4540}, !- Handle
  Node 1,                                 !- Name
  {b50d476c-379c-4752-943f-3dc93e67714b}, !- Inlet Port
  ;                                       !- Outlet Port

OS:Connection,
  {b50d476c-379c-4752-943f-3dc93e67714b}, !- Handle
  {bc9df750-1d3e-473a-bc86-7af0279354ca}, !- Source Object
  11,                                     !- Outlet Port
  {fc8cf21a-a048-40c6-858a-c7760eef4540}, !- Target Object
  2;                                      !- Inlet Port

OS:PortList,
  {cc977cdf-dbc3-4bf3-a6fe-64943870eab7}, !- Handle
  {bc9df750-1d3e-473a-bc86-7af0279354ca}, !- HVAC Component
  {6028934e-3488-408f-89bd-df4bc4181da1}; !- Port 1

OS:PortList,
  {4076b5f7-2f58-44eb-9684-119dc3d64cad}, !- Handle
  {bc9df750-1d3e-473a-bc86-7af0279354ca}; !- HVAC Component

OS:PortList,
  {2fd6308b-049f-4d9c-8d1a-5fc971f3c807}, !- Handle
  {bc9df750-1d3e-473a-bc86-7af0279354ca}, !- HVAC Component
  {557eb027-b734-49ac-bbfd-a31d4c97eb6f}; !- Port 1

OS:Sizing:Zone,
  {caf7a7a8-c48d-408a-94df-d72638d39c7a}, !- Handle
  {bc9df750-1d3e-473a-bc86-7af0279354ca}, !- Zone or ZoneList Name
  SupplyAirTemperature,                   !- Zone Cooling Design Supply Air Temperature Input Method
  14,                                     !- Zone Cooling Design Supply Air Temperature {C}
  11.11,                                  !- Zone Cooling Design Supply Air Temperature Difference {deltaC}
  SupplyAirTemperature,                   !- Zone Heating Design Supply Air Temperature Input Method
  40,                                     !- Zone Heating Design Supply Air Temperature {C}
  11.11,                                  !- Zone Heating Design Supply Air Temperature Difference {deltaC}
  0.0085,                                 !- Zone Cooling Design Supply Air Humidity Ratio {kg-H2O/kg-air}
  0.008,                                  !- Zone Heating Design Supply Air Humidity Ratio {kg-H2O/kg-air}
  ,                                       !- Zone Heating Sizing Factor
  ,                                       !- Zone Cooling Sizing Factor
  DesignDay,                              !- Cooling Design Air Flow Method
  ,                                       !- Cooling Design Air Flow Rate {m3/s}
  ,                                       !- Cooling Minimum Air Flow per Zone Floor Area {m3/s-m2}
  ,                                       !- Cooling Minimum Air Flow {m3/s}
  ,                                       !- Cooling Minimum Air Flow Fraction
  DesignDay,                              !- Heating Design Air Flow Method
  ,                                       !- Heating Design Air Flow Rate {m3/s}
  ,                                       !- Heating Maximum Air Flow per Zone Floor Area {m3/s-m2}
  ,                                       !- Heating Maximum Air Flow {m3/s}
  ,                                       !- Heating Maximum Air Flow Fraction
  No,                                     !- Account for Dedicated Outdoor Air System
  NeutralSupplyAir,                       !- Dedicated Outdoor Air System Control Strategy
  autosize,                               !- Dedicated Outdoor Air Low Setpoint Temperature for Design {C}
  autosize;                               !- Dedicated Outdoor Air High Setpoint Temperature for Design {C}

OS:ZoneHVAC:EquipmentList,
  {9728e0b3-9d40-45c7-9c22-c4515b4ed3ce}, !- Handle
  Zone HVAC Equipment List 1,             !- Name
  {bc9df750-1d3e-473a-bc86-7af0279354ca}, !- Thermal Zone
  SequentialLoad,                         !- Load Distribution Scheme
  {da8c61b5-6d28-412a-9bac-8607cb62686e}, !- Zone Equipment 1
  1,                                      !- Zone Equipment Cooling Sequence 1
  1,                                      !- Zone Equipment Heating or No-Load Sequence 1
  ,                                       !- Zone Equipment Sequential Cooling Fraction Schedule Name 1
  ;                                       !- Zone Equipment Sequential Heating Fraction Schedule Name 1

OS:Space,
  {e926a345-3d83-437d-9f7b-636f5eeb4b08}, !- Handle
  living space,                           !- Name
  {df1c250e-043e-4e73-a969-8843ffeacfb4}, !- Space Type Name
  ,                                       !- Default Construction Set Name
  ,                                       !- Default Schedule Set Name
  -0,                                     !- Direction of Relative North {deg}
  0,                                      !- X Origin {m}
  0,                                      !- Y Origin {m}
  0,                                      !- Z Origin {m}
  ,                                       !- Building Story Name
  {bc9df750-1d3e-473a-bc86-7af0279354ca}, !- Thermal Zone Name
  ,                                       !- Part of Total Floor Area
  ,                                       !- Design Specification Outdoor Air Object Name
  {d42ba41b-1b26-4748-b2e4-69c3694abba9}; !- Building Unit Name

OS:Surface,
  {d294c0a3-1668-4d93-9231-909999b56f53}, !- Handle
  Surface 1,                              !- Name
  Floor,                                  !- Surface Type
  {cbfa8a7d-3a87-42d6-b5f7-d309cf333ebe}, !- Construction Name
  {e926a345-3d83-437d-9f7b-636f5eeb4b08}, !- Space Name
  Foundation,                             !- Outside Boundary Condition
  {e2f115af-9051-400b-b77f-5911adffbfec}, !- Outside Boundary Condition Object
  NoSun,                                  !- Sun Exposure
  NoWind,                                 !- Wind Exposure
  ,                                       !- View Factor to Ground
  ,                                       !- Number of Vertices
  0, 0, 0,                                !- X,Y,Z Vertex 1 {m}
  0, 9.33946636591192, 0,                 !- X,Y,Z Vertex 2 {m}
  16.8110394586415, 9.33946636591192, 0,  !- X,Y,Z Vertex 3 {m}
  16.8110394586415, 0, 0;                 !- X,Y,Z Vertex 4 {m}

OS:Surface,
  {90b30dc2-9a76-4d87-b5cb-c7707ffe34a2}, !- Handle
  Surface 2,                              !- Name
  Wall,                                   !- Surface Type
  {92c88f1b-6f14-430d-9ea3-32c8383221c5}, !- Construction Name
  {e926a345-3d83-437d-9f7b-636f5eeb4b08}, !- Space Name
  Outdoors,                               !- Outside Boundary Condition
  ,                                       !- Outside Boundary Condition Object
  SunExposed,                             !- Sun Exposure
  WindExposed,                            !- Wind Exposure
  ,                                       !- View Factor to Ground
  ,                                       !- Number of Vertices
  0, 9.33946636591192, 2.4384,            !- X,Y,Z Vertex 1 {m}
  0, 9.33946636591192, 0,                 !- X,Y,Z Vertex 2 {m}
  0, 0, 0,                                !- X,Y,Z Vertex 3 {m}
  0, 0, 2.4384;                           !- X,Y,Z Vertex 4 {m}

OS:Surface,
  {bc5fb9b4-8541-4cc2-bf54-1903aad0b599}, !- Handle
  Surface 3,                              !- Name
  Wall,                                   !- Surface Type
  {92c88f1b-6f14-430d-9ea3-32c8383221c5}, !- Construction Name
  {e926a345-3d83-437d-9f7b-636f5eeb4b08}, !- Space Name
  Outdoors,                               !- Outside Boundary Condition
  ,                                       !- Outside Boundary Condition Object
  SunExposed,                             !- Sun Exposure
  WindExposed,                            !- Wind Exposure
  ,                                       !- View Factor to Ground
  ,                                       !- Number of Vertices
  16.8110394586415, 9.33946636591192, 2.4384, !- X,Y,Z Vertex 1 {m}
  16.8110394586415, 9.33946636591192, 0,  !- X,Y,Z Vertex 2 {m}
  0, 9.33946636591192, 0,                 !- X,Y,Z Vertex 3 {m}
  0, 9.33946636591192, 2.4384;            !- X,Y,Z Vertex 4 {m}

OS:Surface,
  {6165fcde-9443-41fb-849e-454edd45de1d}, !- Handle
  Surface 4,                              !- Name
  Wall,                                   !- Surface Type
  {92c88f1b-6f14-430d-9ea3-32c8383221c5}, !- Construction Name
  {e926a345-3d83-437d-9f7b-636f5eeb4b08}, !- Space Name
  Outdoors,                               !- Outside Boundary Condition
  ,                                       !- Outside Boundary Condition Object
  SunExposed,                             !- Sun Exposure
  WindExposed,                            !- Wind Exposure
  ,                                       !- View Factor to Ground
  ,                                       !- Number of Vertices
  16.8110394586415, 0, 2.4384,            !- X,Y,Z Vertex 1 {m}
  16.8110394586415, 0, 0,                 !- X,Y,Z Vertex 2 {m}
  16.8110394586415, 9.33946636591192, 0,  !- X,Y,Z Vertex 3 {m}
  16.8110394586415, 9.33946636591192, 2.4384; !- X,Y,Z Vertex 4 {m}

OS:Surface,
  {cd15d0fb-ffa1-42c4-84b8-0dcb6023b870}, !- Handle
  Surface 5,                              !- Name
  Wall,                                   !- Surface Type
  {92c88f1b-6f14-430d-9ea3-32c8383221c5}, !- Construction Name
  {e926a345-3d83-437d-9f7b-636f5eeb4b08}, !- Space Name
  Outdoors,                               !- Outside Boundary Condition
  ,                                       !- Outside Boundary Condition Object
  SunExposed,                             !- Sun Exposure
  WindExposed,                            !- Wind Exposure
  ,                                       !- View Factor to Ground
  ,                                       !- Number of Vertices
  1.04865714285714, 0, -1.8869542817157e-07, !- X,Y,Z Vertex 1 {m}
  16.8110394586415, 0, 0,                 !- X,Y,Z Vertex 2 {m}
  16.8110394586415, 0, 2.4384,            !- X,Y,Z Vertex 3 {m}
  1.04865714285714, 0, 2.43840018869543;  !- X,Y,Z Vertex 4 {m}

OS:Surface,
  {ac113c28-f7ab-44ea-ae4f-150a8a099e2f}, !- Handle
  Surface 6,                              !- Name
  RoofCeiling,                            !- Surface Type
  {d6287ec0-6df2-4e55-a020-d893b0c13fd1}, !- Construction Name
  {e926a345-3d83-437d-9f7b-636f5eeb4b08}, !- Space Name
  Surface,                                !- Outside Boundary Condition
  {b677cede-47b2-4eee-bd79-b024a48e233b}, !- Outside Boundary Condition Object
  NoSun,                                  !- Sun Exposure
  NoWind,                                 !- Wind Exposure
  ,                                       !- View Factor to Ground
  ,                                       !- Number of Vertices
  16.8110394586415, 0, 2.4384,            !- X,Y,Z Vertex 1 {m}
  16.8110394586415, 9.33946636591192, 2.4384, !- X,Y,Z Vertex 2 {m}
  0, 9.33946636591192, 2.4384,            !- X,Y,Z Vertex 3 {m}
  0, 0, 2.4384;                           !- X,Y,Z Vertex 4 {m}

OS:SpaceType,
  {df1c250e-043e-4e73-a969-8843ffeacfb4}, !- Handle
  Space Type 1,                           !- Name
  ,                                       !- Default Construction Set Name
  ,                                       !- Default Schedule Set Name
  ,                                       !- Group Rendering Name
  ,                                       !- Design Specification Outdoor Air Object Name
  ,                                       !- Standards Template
  ,                                       !- Standards Building Type
  living;                                 !- Standards Space Type

OS:Surface,
  {b677cede-47b2-4eee-bd79-b024a48e233b}, !- Handle
  Surface 7,                              !- Name
  Floor,                                  !- Surface Type
  {b1c35a99-6550-4c0e-b219-9045f60fb97d}, !- Construction Name
  {131436b8-ece2-4721-9f17-66512c7daaa6}, !- Space Name
  Surface,                                !- Outside Boundary Condition
  {ac113c28-f7ab-44ea-ae4f-150a8a099e2f}, !- Outside Boundary Condition Object
  NoSun,                                  !- Sun Exposure
  NoWind,                                 !- Wind Exposure
  ,                                       !- View Factor to Ground
  ,                                       !- Number of Vertices
  0, 9.33946636591192, 0,                 !- X,Y,Z Vertex 1 {m}
  16.8110394586415, 9.33946636591192, 0,  !- X,Y,Z Vertex 2 {m}
  16.8110394586415, 0, 0,                 !- X,Y,Z Vertex 3 {m}
  0, 0, 0;                                !- X,Y,Z Vertex 4 {m}

OS:Surface,
  {6ba3b235-cb34-4204-95af-e9548e03c185}, !- Handle
  Surface 8,                              !- Name
  RoofCeiling,                            !- Surface Type
  {a317855e-c3d9-4f76-9b55-9de96146f746}, !- Construction Name
  {131436b8-ece2-4721-9f17-66512c7daaa6}, !- Space Name
  Outdoors,                               !- Outside Boundary Condition
  ,                                       !- Outside Boundary Condition Object
  SunExposed,                             !- Sun Exposure
  WindExposed,                            !- Wind Exposure
  ,                                       !- View Factor to Ground
  ,                                       !- Number of Vertices
  16.8110394586415, 4.66973318295596, 2.63966659147798, !- X,Y,Z Vertex 1 {m}
  0, 4.66973318295596, 2.63966659147798,  !- X,Y,Z Vertex 2 {m}
  0, 0, 0.3048,                           !- X,Y,Z Vertex 3 {m}
  16.8110394586415, 0, 0.3048;            !- X,Y,Z Vertex 4 {m}

OS:Surface,
  {2765788f-7dfd-4c05-828a-6078bef7ddfc}, !- Handle
  Surface 9,                              !- Name
  RoofCeiling,                            !- Surface Type
  {a317855e-c3d9-4f76-9b55-9de96146f746}, !- Construction Name
  {131436b8-ece2-4721-9f17-66512c7daaa6}, !- Space Name
  Outdoors,                               !- Outside Boundary Condition
  ,                                       !- Outside Boundary Condition Object
  SunExposed,                             !- Sun Exposure
  WindExposed,                            !- Wind Exposure
  ,                                       !- View Factor to Ground
  ,                                       !- Number of Vertices
  0, 4.66973318295596, 2.63966659147798,  !- X,Y,Z Vertex 1 {m}
  16.8110394586415, 4.66973318295596, 2.63966659147798, !- X,Y,Z Vertex 2 {m}
  16.8110394586415, 9.33946636591192, 0.3048, !- X,Y,Z Vertex 3 {m}
  0, 9.33946636591192, 0.3048;            !- X,Y,Z Vertex 4 {m}

OS:Surface,
  {a1e5cceb-4c4c-4157-9df7-4bcfe83a6871}, !- Handle
  Surface 10,                             !- Name
  Wall,                                   !- Surface Type
  {a426d51a-126b-4351-bd91-90510293aa93}, !- Construction Name
  {131436b8-ece2-4721-9f17-66512c7daaa6}, !- Space Name
  Outdoors,                               !- Outside Boundary Condition
  ,                                       !- Outside Boundary Condition Object
  SunExposed,                             !- Sun Exposure
  WindExposed,                            !- Wind Exposure
  ,                                       !- View Factor to Ground
  ,                                       !- Number of Vertices
  0, 4.66973318295596, 2.33486659147798,  !- X,Y,Z Vertex 1 {m}
  0, 9.33946636591192, 0,                 !- X,Y,Z Vertex 2 {m}
  0, 0, 0;                                !- X,Y,Z Vertex 3 {m}

OS:Surface,
  {6a6c23a4-e68a-48b3-b9a6-ac2bc729b8b3}, !- Handle
  Surface 11,                             !- Name
  Wall,                                   !- Surface Type
  {a426d51a-126b-4351-bd91-90510293aa93}, !- Construction Name
  {131436b8-ece2-4721-9f17-66512c7daaa6}, !- Space Name
  Outdoors,                               !- Outside Boundary Condition
  ,                                       !- Outside Boundary Condition Object
  SunExposed,                             !- Sun Exposure
  WindExposed,                            !- Wind Exposure
  ,                                       !- View Factor to Ground
  ,                                       !- Number of Vertices
  16.8110394586415, 4.66973318295596, 2.33486659147798, !- X,Y,Z Vertex 1 {m}
  16.8110394586415, 0, 0,                 !- X,Y,Z Vertex 2 {m}
  16.8110394586415, 9.33946636591192, 0;  !- X,Y,Z Vertex 3 {m}

OS:Space,
  {131436b8-ece2-4721-9f17-66512c7daaa6}, !- Handle
  unfinished attic space,                 !- Name
  {2694e310-650d-41be-93e5-633617c8a850}, !- Space Type Name
  ,                                       !- Default Construction Set Name
  ,                                       !- Default Schedule Set Name
  -0,                                     !- Direction of Relative North {deg}
  0,                                      !- X Origin {m}
  0,                                      !- Y Origin {m}
  2.4384,                                 !- Z Origin {m}
  ,                                       !- Building Story Name
  {74f1b188-b782-4940-9f1f-6bc6ddad0907}; !- Thermal Zone Name

OS:ThermalZone,
  {74f1b188-b782-4940-9f1f-6bc6ddad0907}, !- Handle
  unfinished attic zone,                  !- Name
  ,                                       !- Multiplier
  ,                                       !- Ceiling Height {m}
  ,                                       !- Volume {m3}
  ,                                       !- Floor Area {m2}
  ,                                       !- Zone Inside Convection Algorithm
  ,                                       !- Zone Outside Convection Algorithm
  ,                                       !- Zone Conditioning Equipment List Name
  {0c19b6fe-8ed4-48e4-8155-25d3a5c58d7f}, !- Zone Air Inlet Port List
  {0f7997ba-50b0-43a6-ad42-3c86f9f9f92e}, !- Zone Air Exhaust Port List
  {3d9b0e4a-e4ff-412e-ab25-196edf41b1f3}, !- Zone Air Node Name
  {9b199804-203e-4769-9056-6652f9bd048a}, !- Zone Return Air Port List
  ,                                       !- Primary Daylighting Control Name
  ,                                       !- Fraction of Zone Controlled by Primary Daylighting Control
  ,                                       !- Secondary Daylighting Control Name
  ,                                       !- Fraction of Zone Controlled by Secondary Daylighting Control
  ,                                       !- Illuminance Map Name
  ,                                       !- Group Rendering Name
  ,                                       !- Thermostat Name
  No;                                     !- Use Ideal Air Loads

OS:Node,
  {d4ebcd83-4544-434a-a2e7-612f1054c94a}, !- Handle
  Node 2,                                 !- Name
  {3d9b0e4a-e4ff-412e-ab25-196edf41b1f3}, !- Inlet Port
  ;                                       !- Outlet Port

OS:Connection,
  {3d9b0e4a-e4ff-412e-ab25-196edf41b1f3}, !- Handle
  {74f1b188-b782-4940-9f1f-6bc6ddad0907}, !- Source Object
  11,                                     !- Outlet Port
  {d4ebcd83-4544-434a-a2e7-612f1054c94a}, !- Target Object