
OS:Version,
  {7ffa58ef-9d43-4814-a9c4-ff031970b444}, !- Handle
  3.2.1;                                  !- Version Identifier

OS:Building,
  {8550f28f-f543-46fa-a120-8958a5ce5b45}, !- Handle
  Building 1,                             !- Name
  ,                                       !- Building Sector Type
  0,                                      !- North Axis {deg}
  ,                                       !- Nominal Floor to Floor Height {m}
  ,                                       !- Space Type Name
  ,                                       !- Default Construction Set Name
  ,                                       !- Default Schedule Set Name
  4,                                      !- Standards Number of Stories
  3,                                      !- Standards Number of Above Ground Stories
  ,                                       !- Standards Template
  multifamily,                            !- Standards Building Type
  13;                                     !- Standards Number of Living Units

OS:Facility,
  {1072fe9e-34a3-40e2-ac93-128df53bf1fa}; !- Handle

OS:Site,
  {50cfe3e8-6809-4be4-b052-b9843a5512f7}, !- Handle
  Boston Logan IntL Arpt_MA_USA,          !- Name
  42.37,                                  !- Latitude {deg}
  -71.02,                                 !- Longitude {deg}
  -5,                                     !- Time Zone {hr}
  6,                                      !- Elevation {m}
  Suburbs;                                !- Terrain

OS:SimulationControl,
  {fbb23928-30ed-4a7d-99c9-f4b36ab3b6f9}, !- Handle
  ,                                       !- Do Zone Sizing Calculation
  ,                                       !- Do System Sizing Calculation
  ,                                       !- Do Plant Sizing Calculation
  No;                                     !- Run Simulation for Sizing Periods

OS:Sizing:Parameters,
  {ef68265a-5591-4a4f-b071-dc3abb346ca1}, !- Handle
  1.25,                                   !- Heating Sizing Factor
  1.15;                                   !- Cooling Sizing Factor

OS:Timestep,
  {16cd0fd8-f596-4428-ac29-ab28d482ebe0}, !- Handle
  4;                                      !- Number of Timesteps per Hour

OS:ShadowCalculation,
  {ff1b2084-961d-4313-a88e-4b986f366bba}, !- Handle
  PolygonClipping,                        !- Shading Calculation Method
  ,                                       !- Shading Calculation Update Frequency Method
  20,                                     !- Shading Calculation Update Frequency
  200,                                    !- Maximum Figures in Shadow Overlap Calculations
  ,                                       !- Polygon Clipping Algorithm
  512,                                    !- Pixel Counting Resolution
  DetailedSkyDiffuseModeling,             !- Sky Diffuse Modeling Algorithm
  No,                                     !- Output External Shading Calculation Results
  No,                                     !- Disable Self-Shading Within Shading Zone Groups
  No;                                     !- Disable Self-Shading From Shading Zone Groups to Other Zones

OS:HeatBalanceAlgorithm,
  {a3766741-f9a4-43d9-b44b-5f72d42586f9}, !- Handle
  ConductionTransferFunction,             !- Algorithm
  200;                                    !- Surface Temperature Upper Limit {C}

OS:RunPeriod,
  {0b638193-3666-457a-a5f9-211861f08220}, !- Handle
  Run Period 1,                           !- Name
  1,                                      !- Begin Month
  1,                                      !- Begin Day of Month
  12,                                     !- End Month
  31,                                     !- End Day of Month
  ,                                       !- Use Weather File Holidays and Special Days
  ,                                       !- Use Weather File Daylight Saving Period
  ,                                       !- Apply Weekend Holiday Rule
  ,                                       !- Use Weather File Rain Indicators
  ,                                       !- Use Weather File Snow Indicators
  ;                                       !- Number of Times Runperiod to be Repeated

OS:LifeCycleCost:Parameters,
  {3cd0316e-15df-4445-9bfe-b58cd1673a88}, !- Handle
  ,                                       !- Analysis Type
  ,                                       !- Discounting Convention
  ,                                       !- Inflation Approach
  ,                                       !- Real Discount Rate
  ,                                       !- Nominal Discount Rate
  ,                                       !- Inflation
  ,                                       !- Base Date Month
  ,                                       !- Base Date Year
  ,                                       !- Service Date Month
  ,                                       !- Service Date Year
  ;                                       !- Length of Study Period in Years

OS:SurfaceConvectionAlgorithm:Outside,
  {3d919e87-4deb-4fa4-977b-c8efa28e71e6}, !- Handle
  DOE-2;                                  !- Algorithm

OS:SurfaceConvectionAlgorithm:Inside,
  {bf8fc6b9-2221-4b0d-8f16-0508a72c5412}, !- Handle
  TARP;                                   !- Algorithm

OS:ZoneCapacitanceMultiplier:ResearchSpecial,
  {9412beb2-aa46-4875-8327-12ee6e3acfd9}, !- Handle
  ,                                       !- Temperature Capacity Multiplier
  15,                                     !- Humidity Capacity Multiplier
  ;                                       !- Carbon Dioxide Capacity Multiplier

OS:YearDescription,
  {f0a57a3b-b923-4aef-ba41-ce6e0335b5b7}, !- Handle
  2018,                                   !- Calendar Year
  ,                                       !- Day of Week for Start Day
  ;                                       !- Is Leap Year

OS:AdditionalProperties,
  {450c3641-65aa-422e-8d9e-c3858df59328}, !- Handle
  {8550f28f-f543-46fa-a120-8958a5ce5b45}, !- Object Name
  Building ID,                            !- Feature Name 1
  Integer,                                !- Feature Data Type 1
  5274,                                   !- Feature Value 1
  num_occupants,                          !- Feature Name 2
  Integer,                                !- Feature Data Type 2
  1,                                      !- Feature Value 2
  Schedules Path,                         !- Feature Name 3
  String,                                 !- Feature Data Type 3
  /var/simdata/openstudio/run/schedules.csv, !- Feature Value 3
  num_units,                              !- Feature Name 4
  Integer,                                !- Feature Data Type 4
  13,                                     !- Feature Value 4
  has_rear_units,                         !- Feature Name 5
  Boolean,                                !- Feature Data Type 5
  true,                                   !- Feature Value 5
  num_floors,                             !- Feature Name 6
  Integer,                                !- Feature Data Type 6
  3,                                      !- Feature Value 6
  horz_location,                          !- Feature Name 7
  String,                                 !- Feature Data Type 7
  Right,                                  !- Feature Value 7
  level,                                  !- Feature Name 8
  String,                                 !- Feature Data Type 8
  Top,                                    !- Feature Value 8
  found_type,                             !- Feature Name 9
  String,                                 !- Feature Data Type 9
  unfinished basement,                    !- Feature Value 9
  corridor_width,                         !- Feature Name 10
  Double,                                 !- Feature Data Type 10
  3.048,                                  !- Feature Value 10
  corridor_position,                      !- Feature Name 11
  String,                                 !- Feature Data Type 11
  Double-Loaded Interior,                 !- Feature Value 11
  has_water_heater_flue,                  !- Feature Name 12
  Boolean,                                !- Feature Data Type 12
  true,                                   !- Feature Value 12
  has_hvac_flue,                          !- Feature Name 13
  Boolean,                                !- Feature Data Type 13
  true,                                   !- Feature Value 13
  has_fireplace_chimney,                  !- Feature Name 14
  Boolean,                                !- Feature Data Type 14
  false;                                  !- Feature Value 14

OS:WeatherFile,
  {40d75177-b3d3-42bf-8dd1-b5c2293623a6}, !- Handle
  Boston Logan IntL Arpt,                 !- City
  MA,                                     !- State Province Region
  USA,                                    !- Country
  TMY3,                                   !- Data Source
  725090,                                 !- WMO Number
  42.37,                                  !- Latitude {deg}
  -71.02,                                 !- Longitude {deg}
  -5,                                     !- Time Zone {hr}
  6,                                      !- Elevation {m}
  /weather/G2500250.epw,                  !- Url
  B65824C3;                               !- Checksum

OS:AdditionalProperties,
  {2f4bea9a-e674-4dd6-9a8d-c86337e54d6e}, !- Handle
  {40d75177-b3d3-42bf-8dd1-b5c2293623a6}, !- Object Name
  EPWHeaderCity,                          !- Feature Name 1
  String,                                 !- Feature Data Type 1
  Boston Logan IntL Arpt,                 !- Feature Value 1
  EPWHeaderState,                         !- Feature Name 2
  String,                                 !- Feature Data Type 2
  MA,                                     !- Feature Value 2
  EPWHeaderCountry,                       !- Feature Name 3
  String,                                 !- Feature Data Type 3
  USA,                                    !- Feature Value 3
  EPWHeaderDataSource,                    !- Feature Name 4
  String,                                 !- Feature Data Type 4
  TMY3,                                   !- Feature Value 4
  EPWHeaderStation,                       !- Feature Name 5
  String,                                 !- Feature Data Type 5
  725090,                                 !- Feature Value 5
  EPWHeaderLatitude,                      !- Feature Name 6
  Double,                                 !- Feature Data Type 6
  42.369999999999997,                     !- Feature Value 6
  EPWHeaderLongitude,                     !- Feature Name 7
  Double,                                 !- Feature Data Type 7
  -71.019999999999996,                    !- Feature Value 7
  EPWHeaderTimezone,                      !- Feature Name 8
  Double,                                 !- Feature Data Type 8
  -5,                                     !- Feature Value 8
  EPWHeaderAltitude,                      !- Feature Name 9
  Double,                                 !- Feature Data Type 9
  19.685039370078741,                     !- Feature Value 9
  EPWHeaderLocalPressure,                 !- Feature Name 10
  Double,                                 !- Feature Data Type 10
  0.99927585287235943,                    !- Feature Value 10
  EPWHeaderRecordsPerHour,                !- Feature Name 11
  Double,                                 !- Feature Data Type 11
  1,                                      !- Feature Value 11
  EPWDataAnnualAvgDrybulb,                !- Feature Name 12
  Double,                                 !- Feature Data Type 12
  51.079239726027438,                     !- Feature Value 12
  EPWDataAnnualMinDrybulb,                !- Feature Name 13
  Double,                                 !- Feature Data Type 13
  -4,                                     !- Feature Value 13
  EPWDataAnnualMaxDrybulb,                !- Feature Name 14
  Double,                                 !- Feature Data Type 14
  98.960000000000008,                     !- Feature Value 14
  EPWDataCDD50F,                          !- Feature Name 15
  Double,                                 !- Feature Data Type 15
  2872.5375000000004,                     !- Feature Value 15
  EPWDataCDD65F,                          !- Feature Name 16
  Double,                                 !- Feature Data Type 16
  694.41000000000008,                     !- Feature Value 16
  EPWDataHDD50F,                          !- Feature Name 17
  Double,                                 !- Feature Data Type 17
  2478.6150000000007,                     !- Feature Value 17
  EPWDataHDD65F,                          !- Feature Name 18
  Double,                                 !- Feature Data Type 18
  5775.4875000000029,                     !- Feature Value 18
  EPWDataAnnualAvgWindspeed,              !- Feature Name 19
  Double,                                 !- Feature Data Type 19
  5.4847031963464152,                     !- Feature Value 19
  EPWDataMonthlyAvgDrybulbs,              !- Feature Name 20
  String,                                 !- Feature Data Type 20
  26.63362903225807&#4431.063035714285718&#4438.77129032258065&#4447.41249999999998&#4458.801129032258004&#4465.96600000000001&#4474.0812903225806&#4471.02443548387099&#4464.58874999999998&#4454.04443548387097&#4443.273249999999976&#4435.9, !- Feature Value 20
  EPWDataGroundMonthlyTemps,              !- Feature Name 21
  String,                                 !- Feature Data Type 21
  42.50299098785848&#4438.87407805579426&#4438.58346169413858&#4440.30556630479151&#4447.218856684436844&#4454.09994202472154&#4460.065475260311075&#4463.84449384575731&#4464.16554223126462&#4461.09194577833995&#4455.278537142710604&#4448.608535473512575, !- Feature Value 21
  EPWDataWSF,                             !- Feature Name 22
  Double,                                 !- Feature Data Type 22
  0.66000000000000003,                    !- Feature Value 22
  EPWDataMonthlyAvgDailyHighDrybulbs,     !- Feature Name 23
  String,                                 !- Feature Data Type 23
  33.480645161290326&#4436.32&#4446.016774193548386&#4454.52400000000001&#4465.96774193548387&#4474.39599999999999&#4481.95870967741934&#4478.64903225806452&#4473.02799999999999&#4461.35741935483871&#4449.483999999999995&#4442.248387096774195, !- Feature Value 23
  EPWDataMonthlyAvgDailyLowDrybulbs,      !- Feature Name 24
  String,                                 !- Feature Data Type 24
  18.238709677419354&#4425.185714285714287&#4431.796774193548387&#4440.46&#4452.56645161290323&#4458.220000000000006&#4466.76322580645163&#4464.30129032258064&#4456.474000000000004&#4446.19096774193548&#4437.37&#4429.543870967741935, !- Feature Value 24
  EPWDesignHeatingDrybulb,                !- Feature Name 25
  Double,                                 !- Feature Data Type 25
  12.379999999999999,                     !- Feature Value 25
  EPWDesignHeatingWindspeed,              !- Feature Name 26
  Double,                                 !- Feature Data Type 26
  12.6,                                   !- Feature Value 26
  EPWDesignCoolingDrybulb,                !- Feature Name 27
  Double,                                 !- Feature Data Type 27
  87.620000000000005,                     !- Feature Value 27
  EPWDesignCoolingWetbulb,                !- Feature Name 28
  Double,                                 !- Feature Data Type 28
  71.960000000000008,                     !- Feature Value 28
  EPWDesignCoolingHumidityRatio,          !- Feature Name 29
  Double,                                 !- Feature Data Type 29
  0.013102768397638163,                   !- Feature Value 29
  EPWDesignCoolingWindspeed,              !- Feature Name 30
  Double,                                 !- Feature Data Type 30
  6.2999999999999998,                     !- Feature Value 30
  EPWDesignDailyTemperatureRange,         !- Feature Name 31
  Double,                                 !- Feature Data Type 31
  15.120000000000001,                     !- Feature Value 31
  EPWDesignDehumidDrybulb,                !- Feature Name 32
  Double,                                 !- Feature Data Type 32
  77.900000000000006,                     !- Feature Value 32
  EPWDesignDehumidHumidityRatio,          !- Feature Name 33
  Double,                                 !- Feature Data Type 33
  0.015865827034356558,                   !- Feature Value 33
  EPWDesignCoolingDirectNormal,           !- Feature Name 34
  Double,                                 !- Feature Data Type 34
  779,                                    !- Feature Value 34
  EPWDesignCoolingDiffuseHorizontal,      !- Feature Name 35
  Double,                                 !- Feature Data Type 35
  271;                                    !- Feature Value 35

OS:ClimateZones,
  {2935941e-c6ac-4612-b999-9e28231222c9}, !- Handle
  Building America,                       !- Climate Zone Institution Name 1
  ,                                       !- Climate Zone Document Name 1
  0,                                      !- Climate Zone Document Year 1
  Cold;                                   !- Climate Zone Value 1

OS:Site:WaterMainsTemperature,
  {e8547eb3-ca8e-4c50-9009-d73e1ac00515}, !- Handle
  Correlation,                            !- Calculation Method
  ,                                       !- Temperature Schedule Name
  10.5995776255708,                       !- Annual Average Outdoor Air Temperature {C}
  26.359811827957;                        !- Maximum Difference In Monthly Average Outdoor Air Temperatures {deltaC}

OS:RunPeriodControl:DaylightSavingTime,
  {81726bfd-543a-4832-a628-681c3528f25c}, !- Handle
  3/10,                                   !- Start Date
  11/3;                                   !- End Date

OS:Site:GroundTemperature:Deep,
  {ef6599af-853a-4124-b907-6f8055356367}, !- Handle
  10.5995776255708,                       !- January Deep Ground Temperature {C}
  10.5995776255708,                       !- February Deep Ground Temperature {C}
  10.5995776255708,                       !- March Deep Ground Temperature {C}
  10.5995776255708,                       !- April Deep Ground Temperature {C}
  10.5995776255708,                       !- May Deep Ground Temperature {C}
  10.5995776255708,                       !- June Deep Ground Temperature {C}
  10.5995776255708,                       !- July Deep Ground Temperature {C}
  10.5995776255708,                       !- August Deep Ground Temperature {C}
  10.5995776255708,                       !- September Deep Ground Temperature {C}
  10.5995776255708,                       !- October Deep Ground Temperature {C}
  10.5995776255708,                       !- November Deep Ground Temperature {C}
  10.5995776255708;                       !- December Deep Ground Temperature {C}

OS:ThermalZone,
  {4fabec95-811b-4ec0-95fc-ef91ae4ad4da}, !- Handle
  living zone,                            !- Name
  ,                                       !- Multiplier
  ,                                       !- Ceiling Height {m}
  ,                                       !- Volume {m3}
  ,                                       !- Floor Area {m2}
  ,                                       !- Zone Inside Convection Algorithm
  ,                                       !- Zone Outside Convection Algorithm
  ,                                       !- Zone Conditioning Equipment List Name
  {0f215f5e-2d0a-478c-81cf-0dcae982149b}, !- Zone Air Inlet Port List
  {cae1be5b-e100-4dfb-9c2a-316270a453bb}, !- Zone Air Exhaust Port List
  {bcd6ad06-64a0-4b16-91ef-2bb061d9f4b9}, !- Zone Air Node Name
  {afd4da51-c636-4e11-bf10-8859e2c118a7}, !- Zone Return Air Port List
  ,                                       !- Primary Daylighting Control Name
  ,                                       !- Fraction of Zone Controlled by Primary Daylighting Control
  ,                                       !- Secondary Daylighting Control Name
  ,                                       !- Fraction of Zone Controlled by Secondary Daylighting Control
  ,                                       !- Illuminance Map Name
  ,                                       !- Group Rendering Name
  {a6d4f59f-248c-46d7-8098-0fa7457cc880}, !- Thermostat Name
  No;                                     !- Use Ideal Air Loads

OS:Node,
  {f4dacd48-577e-457b-bfba-b1bd58735a85}, !- Handle
  Node 1,                                 !- Name
  {bcd6ad06-64a0-4b16-91ef-2bb061d9f4b9}, !- Inlet Port
  ;                                       !- Outlet Port

OS:Connection,
  {bcd6ad06-64a0-4b16-91ef-2bb061d9f4b9}, !- Handle
  {4fabec95-811b-4ec0-95fc-ef91ae4ad4da}, !- Source Object
  11,                                     !- Outlet Port
  {f4dacd48-577e-457b-bfba-b1bd58735a85}, !- Target Object
  2;                                      !- Inlet Port

OS:PortList,
  {0f215f5e-2d0a-478c-81cf-0dcae982149b}, !- Handle
  {4fabec95-811b-4ec0-95fc-ef91ae4ad4da}, !- HVAC Component
  {a156e737-d34b-43bd-84bf-da29a53932da}, !- Port 1
  {ece31ebb-c751-4421-8957-84a815b4a7a2}; !- Port 2

OS:PortList,
  {cae1be5b-e100-4dfb-9c2a-316270a453bb}, !- Handle
  {4fabec95-811b-4ec0-95fc-ef91ae4ad4da}; !- HVAC Component

OS:PortList,
  {afd4da51-c636-4e11-bf10-8859e2c118a7}, !- Handle
  {4fabec95-811b-4ec0-95fc-ef91ae4ad4da}, !- HVAC Component
  {81a9e01a-ee6c-412a-83e5-ac50461fcb1a}, !- Port 1
  {61e2b59a-ff2f-4786-9d14-25fb02c22801}; !- Port 2

OS:Sizing:Zone,
  {c4af9151-65b1-4101-8255-fd34222b5e28}, !- Handle
  {4fabec95-811b-4ec0-95fc-ef91ae4ad4da}, !- Zone or ZoneList Name
  SupplyAirTemperature,                   !- Zone Cooling Design Supply Air Temperature Input Method
  14,                                     !- Zone Cooling Design Supply Air Temperature {C}
  11.11,                                  !- Zone Cooling Design Supply Air Temperature Difference {deltaC}
  SupplyAirTemperature,                   !- Zone Heating Design Supply Air Temperature Input Method
  40,                                     !- Zone Heating Design Supply Air Temperature {C}
  11.11,                                  !- Zone Heating Design Supply Air Temperature Difference {deltaC}
  0.0085,                                 !- Zone Cooling Design Supply Air Humidity Ratio {kg-H2O/kg-air}
  0.008,                                  !- Zone Heating Design Supply Air Humidity Ratio {kg-H2O/kg-air}
  ,                                       !- Zone Heating Sizing Factor
  ,                                       !- Zone Cooling Sizing Factor
  DesignDay,                              !- Cooling Design Air Flow Method
  ,                                       !- Cooling Design Air Flow Rate {m3/s}
  ,                                       !- Cooling Minimum Air Flow per Zone Floor Area {m3/s-m2}
  ,                                       !- Cooling Minimum Air Flow {m3/s}
  ,                                       !- Cooling Minimum Air Flow Fraction
  DesignDay,                              !- Heating Design Air Flow Method
  ,                                       !- Heating Design Air Flow Rate {m3/s}
  ,                                       !- Heating Maximum Air Flow per Zone Floor Area {m3/s-m2}
  ,                                       !- Heating Maximum Air Flow {m3/s}
  ,                                       !- Heating Maximum Air Flow Fraction
  No,                                     !- Account for Dedicated Outdoor Air System
  NeutralSupplyAir,                       !- Dedicated Outdoor Air System Control Strategy
  autosize,                               !- Dedicated Outdoor Air Low Setpoint Temperature for Design {C}
  autosize;                               !- Dedicated Outdoor Air High Setpoint Temperature for Design {C}

OS:ZoneHVAC:EquipmentList,
  {a48ea16d-0ebc-45e9-ba17-f539b3927b83}, !- Handle
  Zone HVAC Equipment List 1,             !- Name
  {4fabec95-811b-4ec0-95fc-ef91ae4ad4da}, !- Thermal Zone
  SequentialLoad,                         !- Load Distribution Scheme
  {152e030e-bfca-4a7d-bde7-75e679cb349d}, !- Zone Equipment 1
  1,                                      !- Zone Equipment Cooling Sequence 1
  1,                                      !- Zone Equipment Heating or No-Load Sequence 1
  ,                                       !- Zone Equipment Sequential Cooling Fraction Schedule Name 1
  ,                                       !- Zone Equipment Sequential Heating Fraction Schedule Name 1
  {df6a34fc-93d5-4a6c-869b-3de7cee2305f}, !- Zone Equipment 2
  2,                                      !- Zone Equipment Cooling Sequence 2
  2,                                      !- Zone Equipment Heating or No-Load Sequence 2
  ,                                       !- Zone Equipment Sequential Cooling Fraction Schedule Name 2
  ;                                       !- Zone Equipment Sequential Heating Fraction Schedule Name 2

OS:Space,
  {aff835b7-5c09-46a2-a914-2e52d79fbbcc}, !- Handle
  living space,                           !- Name
  {6fd2ae40-d5cd-40f4-b83b-911db55f737c}, !- Space Type Name
  ,                                       !- Default Construction Set Name
  ,                                       !- Default Schedule Set Name
  ,                                       !- Direction of Relative North {deg}
  ,                                       !- X Origin {m}
  ,                                       !- Y Origin {m}
  ,                                       !- Z Origin {m}
  ,                                       !- Building Story Name
  {4fabec95-811b-4ec0-95fc-ef91ae4ad4da}, !- Thermal Zone Name
  ,                                       !- Part of Total Floor Area
  ,                                       !- Design Specification Outdoor Air Object Name
  {af19838c-021a-492b-8f51-2dfee52693a9}; !- Building Unit Name

OS:Surface,
  {fffd8ce8-3b4c-418f-8cd2-6642024693b0}, !- Handle
  Surface 1,                              !- Name
  Floor,                                  !- Surface Type
  {71bbd77d-29c4-4826-871c-23d9b08258d3}, !- Construction Name
  {aff835b7-5c09-46a2-a914-2e52d79fbbcc}, !- Space Name
  Adiabatic,                              !- Outside Boundary Condition
  ,                                       !- Outside Boundary Condition Object
  NoSun,                                  !- Sun Exposure
  NoWind,                                 !- Wind Exposure
  ,                                       !- View Factor to Ground
  ,                                       !- Number of Vertices
  0, -10.1576629312062, 4.8768,           !- X,Y,Z Vertex 1 {m}
  0, 0, 4.8768,                           !- X,Y,Z Vertex 2 {m}
  5.64314607289232, 0, 4.8768,            !- X,Y,Z Vertex 3 {m}
  5.64314607289232, -10.1576629312062, 4.8768; !- X,Y,Z Vertex 4 {m}

OS:Surface,
  {7f142dae-c865-4863-8e9d-993ebc1e71ba}, !- Handle
  Surface 2,                              !- Name
  Wall,                                   !- Surface Type
  {4302cba2-a13b-4cf4-8f58-ec3deadb3e71}, !- Construction Name
  {aff835b7-5c09-46a2-a914-2e52d79fbbcc}, !- Space Name
  Adiabatic,                              !- Outside Boundary Condition
  ,                                       !- Outside Boundary Condition Object
  NoSun,                                  !- Sun Exposure
  NoWind,                                 !- Wind Exposure
  ,                                       !- View Factor to Ground
  ,                                       !- Number of Vertices
  0, 0, 7.3152,                           !- X,Y,Z Vertex 1 {m}
  0, 0, 4.8768,                           !- X,Y,Z Vertex 2 {m}
  0, -10.1576629312062, 4.8768,           !- X,Y,Z Vertex 3 {m}
  0, -10.1576629312062, 7.3152;           !- X,Y,Z Vertex 4 {m}

OS:Surface,
  {d196849a-fbf4-45cf-9e7c-c93a7a3babb0}, !- Handle
  Surface 3,                              !- Name
  Wall,                                   !- Surface Type
  {4302cba2-a13b-4cf4-8f58-ec3deadb3e71}, !- Construction Name
  {aff835b7-5c09-46a2-a914-2e52d79fbbcc}, !- Space Name
  Adiabatic,                              !- Outside Boundary Condition
  ,                                       !- Outside Boundary Condition Object
  NoSun,                                  !- Sun Exposure
  NoWind,                                 !- Wind Exposure
  ,                                       !- View Factor to Ground
  ,                                       !- Number of Vertices
  5.64314607289232, 0, 7.3152,            !- X,Y,Z Vertex 1 {m}
  5.64314607289232, 0, 4.8768,            !- X,Y,Z Vertex 2 {m}
  0, 0, 4.8768,                           !- X,Y,Z Vertex 3 {m}
  0, 0, 7.3152;                           !- X,Y,Z Vertex 4 {m}

OS:Surface,
  {52c8eb30-8bc0-4187-aff6-1094be9fe666}, !- Handle
  Surface 4,                              !- Name
  Wall,                                   !- Surface Type
  {233244dd-c7d5-4b68-ad8e-5b22f2ac1209}, !- Construction Name
  {aff835b7-5c09-46a2-a914-2e52d79fbbcc}, !- Space Name
  Outdoors,                               !- Outside Boundary Condition
  ,                                       !- Outside Boundary Condition Object
  SunExposed,                             !- Sun Exposure
  WindExposed,                            !- Wind Exposure
  ,                                       !- View Factor to Ground
  ,                                       !- Number of Vertices
  5.64314607289232, -10.1576629312062, 7.3152, !- X,Y,Z Vertex 1 {m}
  5.64314607289232, -10.1576629312062, 4.8768, !- X,Y,Z Vertex 2 {m}
  5.64314607289232, 0, 4.8768,            !- X,Y,Z Vertex 3 {m}
  5.64314607289232, 0, 7.3152;            !- X,Y,Z Vertex 4 {m}

OS:Surface,
  {63f12a40-d3f9-42dd-85ff-cf13f81c661c}, !- Handle
  Surface 5,                              !- Name
  Wall,                                   !- Surface Type
  {233244dd-c7d5-4b68-ad8e-5b22f2ac1209}, !- Construction Name
  {aff835b7-5c09-46a2-a914-2e52d79fbbcc}, !- Space Name