
OS:Version,
  {517457d8-2c7a-49ea-a0cf-8810c1e1cd22}, !- Handle
  3.3.0;                                  !- Version Identifier

OS:Building,
  {db037686-236e-42f3-9b01-3c78cc9f56bc}, !- Handle
  Building 1,                             !- Name
  ,                                       !- Building Sector Type
  0,                                      !- North Axis {deg}
  ,                                       !- Nominal Floor to Floor Height {m}
  ,                                       !- Space Type Name
  ,                                       !- Default Construction Set Name
  ,                                       !- Default Schedule Set Name
  2,                                      !- Standards Number of Stories
  1,                                      !- Standards Number of Above Ground Stories
  ,                                       !- Standards Template
  multifamily,                            !- Standards Building Type
  4;                                      !- Standards Number of Living Units

OS:Facility,
  {3a712afe-9b76-40c9-971d-521587a92d48}; !- Handle

OS:Site,
  {5d6e1195-d90f-45cf-b3e6-63651d0fce66}, !- Handle
  Denver-Aurora-Buckley AFB,              !- Name
  39.72,                                  !- Latitude {deg}
  -104.75,                                !- Longitude {deg}
  -7,                                     !- Time Zone {hr}
  1726,                                   !- Elevation {m}
  Suburbs;                                !- Terrain

OS:SimulationControl,
  {1d328941-806e-4fdf-8af3-125a93998ae8}, !- Handle
  ,                                       !- Do Zone Sizing Calculation
  ,                                       !- Do System Sizing Calculation
  ,                                       !- Do Plant Sizing Calculation
  No;                                     !- Run Simulation for Sizing Periods

OS:Sizing:Parameters,
  {5ee7f840-dbf0-44c0-8345-271f914fa09c}, !- Handle
  1.25,                                   !- Heating Sizing Factor
  1.15;                                   !- Cooling Sizing Factor

OS:Timestep,
  {d42c4fd8-f8ce-49f2-9201-a03df9a1959a}, !- Handle
  4;                                      !- Number of Timesteps per Hour

OS:ShadowCalculation,
  {c8b55c23-fd2d-49b6-a304-b70e0ccc42a9}, !- Handle
  PolygonClipping,                        !- Shading Calculation Method
  ,                                       !- Shading Calculation Update Frequency Method
  20,                                     !- Shading Calculation Update Frequency
  200,                                    !- Maximum Figures in Shadow Overlap Calculations
  ,                                       !- Polygon Clipping Algorithm
  512,                                    !- Pixel Counting Resolution
  DetailedSkyDiffuseModeling,             !- Sky Diffuse Modeling Algorithm
  No,                                     !- Output External Shading Calculation Results
  No,                                     !- Disable Self-Shading Within Shading Zone Groups
  No;                                     !- Disable Self-Shading From Shading Zone Groups to Other Zones

OS:HeatBalanceAlgorithm,
  {cc897cfb-9fa5-41d9-88cb-03bd908f800f}, !- Handle
  ConductionTransferFunction,             !- Algorithm
  200;                                    !- Surface Temperature Upper Limit {C}

OS:RunPeriod,
  {4814fdc0-2663-4064-b08a-a5737799d4e3}, !- Handle
  Run Period 1,                           !- Name
  1,                                      !- Begin Month
  1,                                      !- Begin Day of Month
  12,                                     !- End Month
  31,                                     !- End Day of Month
  ,                                       !- Use Weather File Holidays and Special Days
  ,                                       !- Use Weather File Daylight Saving Period
  ,                                       !- Apply Weekend Holiday Rule
  ,                                       !- Use Weather File Rain Indicators
  ,                                       !- Use Weather File Snow Indicators
  ;                                       !- Number of Times Runperiod to be Repeated

OS:LifeCycleCost:Parameters,
  {b23a6688-72b4-4502-a09f-80570db5d9d1}, !- Handle
  ,                                       !- Analysis Type
  ,                                       !- Discounting Convention
  ,                                       !- Inflation Approach
  ,                                       !- Real Discount Rate
  ,                                       !- Nominal Discount Rate
  ,                                       !- Inflation
  ,                                       !- Base Date Month
  ,                                       !- Base Date Year
  ,                                       !- Service Date Month
  ,                                       !- Service Date Year
  ;                                       !- Length of Study Period in Years

OS:SurfaceConvectionAlgorithm:Outside,
  {3998115f-f5f3-42ef-90d5-a024215e3af5}, !- Handle
  DOE-2;                                  !- Algorithm

OS:SurfaceConvectionAlgorithm:Inside,
  {1a1d3ddd-928e-4ee3-a9a1-9fb2e5fcbda5}, !- Handle
  TARP;                                   !- Algorithm

OS:ZoneCapacitanceMultiplier:ResearchSpecial,
  {f9ea7420-3739-4a5d-a59b-7ee149c158a5}, !- Handle
  ,                                       !- Temperature Capacity Multiplier
  15,                                     !- Humidity Capacity Multiplier
  ;                                       !- Carbon Dioxide Capacity Multiplier

OS:YearDescription,
  {d29a5835-b523-4000-bbc6-48c1ac4c9eea}, !- Handle
  ,                                       !- Calendar Year
  Sunday,                                 !- Day of Week for Start Day
  ;                                       !- Is Leap Year

OS:AdditionalProperties,
  {20c86df4-6299-4503-9ad3-a36d0e6a091b}, !- Handle
  {db037686-236e-42f3-9b01-3c78cc9f56bc}, !- Object Name
  Building ID,                            !- Feature Name 1
  Integer,                                !- Feature Data Type 1
  116279,                                 !- Feature Value 1
  num_occupants,                          !- Feature Name 2
  Integer,                                !- Feature Data Type 2
  2,                                      !- Feature Value 2
  Schedules Path,                         !- Feature Name 3
  String,                                 !- Feature Data Type 3
  /var/simdata/openstudio/run/schedules.csv, !- Feature Value 3
  num_units,                              !- Feature Name 4
  Integer,                                !- Feature Data Type 4
  4,                                      !- Feature Value 4
  has_rear_units,                         !- Feature Name 5
  Boolean,                                !- Feature Data Type 5
  true,                                   !- Feature Value 5
  num_floors,                             !- Feature Name 6
  Integer,                                !- Feature Data Type 6
  1,                                      !- Feature Value 6
  horz_location,                          !- Feature Name 7
  String,                                 !- Feature Data Type 7
  Left,                                   !- Feature Value 7
  level,                                  !- Feature Name 8
  String,                                 !- Feature Data Type 8
  Bottom,                                 !- Feature Value 8
  found_type,                             !- Feature Name 9
  String,                                 !- Feature Data Type 9
  unfinished basement,                    !- Feature Value 9
  corridor_width,                         !- Feature Name 10
  Double,                                 !- Feature Data Type 10
  3.048,                                  !- Feature Value 10
  corridor_position,                      !- Feature Name 11
  String,                                 !- Feature Data Type 11
  Double-Loaded Interior,                 !- Feature Value 11
  has_water_heater_flue,                  !- Feature Name 12
  Boolean,                                !- Feature Data Type 12
  true,                                   !- Feature Value 12
  has_fireplace_chimney,                  !- Feature Name 13
  Boolean,                                !- Feature Data Type 13
  false;                                  !- Feature Value 13

OS:ClimateZones,
  {4db7762b-706d-49e8-8240-deeac637eec9}, !- Handle
  Building America,                       !- Climate Zone Institution Name 1
  ,                                       !- Climate Zone Document Name 1
  0,                                      !- Climate Zone Document Year 1
  Cold,                                   !- Climate Zone Value 1
  ASHRAE,                                 !- Climate Zone Institution Name 2
  ANSI/ASHRAE Standard 169,               !- Climate Zone Document Name 2
  2006,                                   !- Climate Zone Document Year 2
  ,                                       !- Climate Zone Value 2
  CEC,                                    !- Climate Zone Institution Name 3
  California Climate Zone Descriptions,   !- Climate Zone Document Name 3
  1995,                                   !- Climate Zone Document Year 3
  ;                                       !- Climate Zone Value 3

OS:Site:WaterMainsTemperature,
  {cd55bf7b-eefc-40b1-b509-31e2771ce887}, !- Handle
  Correlation,                            !- Calculation Method
  ,                                       !- Temperature Schedule Name
  7.70296803652968,                       !- Annual Average Outdoor Air Temperature {C}
  25.2454569892473;                       !- Maximum Difference In Monthly Average Outdoor Air Temperatures {deltaC}

OS:RunPeriodControl:DaylightSavingTime,
  {355916f3-7a46-413f-8b65-49f73f9c31ca}, !- Handle
  3/10,                                   !- Start Date
  11/3;                                   !- End Date

OS:Site:GroundTemperature:Deep,
  {a9d753cb-c5b3-4c44-80d7-fbf614dcf577}, !- Handle
  7.70296803652968,                       !- January Deep Ground Temperature {C}
  7.70296803652968,                       !- February Deep Ground Temperature {C}
  7.70296803652968,                       !- March Deep Ground Temperature {C}
  7.70296803652968,                       !- April Deep Ground Temperature {C}
  7.70296803652968,                       !- May Deep Ground Temperature {C}
  7.70296803652968,                       !- June Deep Ground Temperature {C}
  7.70296803652968,                       !- July Deep Ground Temperature {C}
  7.70296803652968,                       !- August Deep Ground Temperature {C}
  7.70296803652968,                       !- September Deep Ground Temperature {C}
  7.70296803652968,                       !- October Deep Ground Temperature {C}
  7.70296803652968,                       !- November Deep Ground Temperature {C}
  7.70296803652968;                       !- December Deep Ground Temperature {C}

OS:ThermalZone,
  {bef4e03c-a976-4db3-b7f3-4ebdea4c8aa5}, !- Handle
  living zone,                            !- Name
  ,                                       !- Multiplier
  ,                                       !- Ceiling Height {m}
  ,                                       !- Volume {m3}
  ,                                       !- Floor Area {m2}
  ,                                       !- Zone Inside Convection Algorithm
  ,                                       !- Zone Outside Convection Algorithm
  ,                                       !- Zone Conditioning Equipment List Name
  {18d0674e-b52e-417d-b192-20d0c2d54551}, !- Zone Air Inlet Port List
  {2cbfe92c-a423-4fb8-bcc7-4a560b75682c}, !- Zone Air Exhaust Port List
  {6d31f6c7-702b-4021-9075-9d3e9ee36a9f}, !- Zone Air Node Name
  {248c6352-064c-4868-a0f1-d472a8da6c5c}, !- Zone Return Air Port List
  ,                                       !- Primary Daylighting Control Name
  ,                                       !- Fraction of Zone Controlled by Primary Daylighting Control
  ,                                       !- Secondary Daylighting Control Name
  ,                                       !- Fraction of Zone Controlled by Secondary Daylighting Control
  ,                                       !- Illuminance Map Name
  ,                                       !- Group Rendering Name
  {53af716e-4d19-425e-abc2-03ea38c45226}, !- Thermostat Name
  No;                                     !- Use Ideal Air Loads

OS:Node,
  {dcf573a2-cd4b-4f39-91a0-62fa6262c247}, !- Handle
  Node 1,                                 !- Name
  {6d31f6c7-702b-4021-9075-9d3e9ee36a9f}, !- Inlet Port
  ;                                       !- Outlet Port

OS:Connection,
  {6d31f6c7-702b-4021-9075-9d3e9ee36a9f}, !- Handle
  {bef4e03c-a976-4db3-b7f3-4ebdea4c8aa5}, !- Source Object
  11,                                     !- Outlet Port
  {dcf573a2-cd4b-4f39-91a0-62fa6262c247}, !- Target Object
  2;                                      !- Inlet Port

OS:PortList,
  {18d0674e-b52e-417d-b192-20d0c2d54551}, !- Handle
  {bef4e03c-a976-4db3-b7f3-4ebdea4c8aa5}; !- HVAC Component

OS:PortList,
  {2cbfe92c-a423-4fb8-bcc7-4a560b75682c}, !- Handle
  {bef4e03c-a976-4db3-b7f3-4ebdea4c8aa5}; !- HVAC Component

OS:PortList,
  {248c6352-064c-4868-a0f1-d472a8da6c5c}, !- Handle
  {bef4e03c-a976-4db3-b7f3-4ebdea4c8aa5}; !- HVAC Component

OS:Sizing:Zone,
  {831dc536-6540-4cf0-a0ee-4edfec51a1b2}, !- Handle
  {bef4e03c-a976-4db3-b7f3-4ebdea4c8aa5}, !- Zone or ZoneList Name
  SupplyAirTemperature,                   !- Zone Cooling Design Supply Air Temperature Input Method
  14,                                     !- Zone Cooling Design Supply Air Temperature {C}
  11.11,                                  !- Zone Cooling Design Supply Air Temperature Difference {deltaC}
  SupplyAirTemperature,                   !- Zone Heating Design Supply Air Temperature Input Method
  40,                                     !- Zone Heating Design Supply Air Temperature {C}
  11.11,                                  !- Zone Heating Design Supply Air Temperature Difference {deltaC}
  0.0085,                                 !- Zone Cooling Design Supply Air Humidity Ratio {kg-H2O/kg-air}
  0.008,                                  !- Zone Heating Design Supply Air Humidity Ratio {kg-H2O/kg-air}
  ,                                       !- Zone Heating Sizing Factor
  ,                                       !- Zone Cooling Sizing Factor
  DesignDay,                              !- Cooling Design Air Flow Method
  ,                                       !- Cooling Design Air Flow Rate {m3/s}
  ,                                       !- Cooling Minimum Air Flow per Zone Floor Area {m3/s-m2}
  ,                                       !- Cooling Minimum Air Flow {m3/s}
  ,                                       !- Cooling Minimum Air Flow Fraction
  DesignDay,                              !- Heating Design Air Flow Method
  ,                                       !- Heating Design Air Flow Rate {m3/s}
  ,                                       !- Heating Maximum Air Flow per Zone Floor Area {m3/s-m2}
  ,                                       !- Heating Maximum Air Flow {m3/s}
  ,                                       !- Heating Maximum Air Flow Fraction
  No,                                     !- Account for Dedicated Outdoor Air System
  NeutralSupplyAir,                       !- Dedicated Outdoor Air System Control Strategy
  autosize,                               !- Dedicated Outdoor Air Low Setpoint Temperature for Design {C}
  autosize;                               !- Dedicated Outdoor Air High Setpoint Temperature for Design {C}

OS:ZoneHVAC:EquipmentList,
  {b4a58388-18d4-4e15-a894-132f48b2f456}, !- Handle
  Zone HVAC Equipment List 1,             !- Name
  {bef4e03c-a976-4db3-b7f3-4ebdea4c8aa5}, !- Thermal Zone
  SequentialLoad,                         !- Load Distribution Scheme
  {b2da5848-3fb6-4ece-a73c-1d1aa21f1760}, !- Zone Equipment 1
  1,                                      !- Zone Equipment Cooling Sequence 1
  1,                                      !- Zone Equipment Heating or No-Load Sequence 1
  ,                                       !- Zone Equipment Sequential Cooling Fraction Schedule Name 1
  ;                                       !- Zone Equipment Sequential Heating Fraction Schedule Name 1

OS:Space,
  {bef7ab90-0b8d-4af7-9057-780b0764fd00}, !- Handle
  living space,                           !- Name
  {ac39ee9f-4f13-42a3-8afc-5234767f636d}, !- Space Type Name
  ,                                       !- Default Construction Set Name
  ,                                       !- Default Schedule Set Name
  ,                                       !- Direction of Relative North {deg}
  ,                                       !- X Origin {m}
  ,                                       !- Y Origin {m}
  ,                                       !- Z Origin {m}
  ,                                       !- Building Story Name
  {bef4e03c-a976-4db3-b7f3-4ebdea4c8aa5}, !- Thermal Zone Name
  ,                                       !- Part of Total Floor Area
  ,                                       !- Design Specification Outdoor Air Object Name
  {b17eed5e-2a9b-40c0-816e-67eff30b00d4}; !- Building Unit Name

OS:Surface,
  {0748befa-7b22-4599-9aaa-6ff59266b2df}, !- Handle
  Surface 1,                              !- Name
  Floor,                                  !- Surface Type
  {b8280f47-699b-4fde-a103-432500b45bac}, !- Construction Name
  {bef7ab90-0b8d-4af7-9057-780b0764fd00}, !- Space Name
  Surface,                                !- Outside Boundary Condition
  {1459f2f1-0bec-46c5-a080-4b9a44f34db3}, !- Outside Boundary Condition Object
  NoSun,                                  !- Sun Exposure
  NoWind,                                 !- Wind Exposure
  ,                                       !- View Factor to Ground
  ,                                       !- Number of Vertices
  0, -11.9433382107349, 0,                !- X,Y,Z Vertex 1 {m}
  0, 0, 0,                                !- X,Y,Z Vertex 2 {m}
  6.63518789485271, 0, 0,                 !- X,Y,Z Vertex 3 {m}
  6.63518789485271, -11.9433382107349, 0; !- X,Y,Z Vertex 4 {m}

OS:Surface,
  {5301de17-6688-4709-9cf3-b88d603655e0}, !- Handle
  Surface 2,                              !- Name
  Wall,                                   !- Surface Type
  {c25b5de1-5834-4c18-bba3-7d8401f0556b}, !- Construction Name
  {bef7ab90-0b8d-4af7-9057-780b0764fd00}, !- Space Name
  Outdoors,                               !- Outside Boundary Condition
  ,                                       !- Outside Boundary Condition Object
  SunExposed,                             !- Sun Exposure
  WindExposed,                            !- Wind Exposure
  ,                                       !- View Factor to Ground
  ,                                       !- Number of Vertices
  0, 0, 2.4384,                           !- X,Y,Z Vertex 1 {m}
  0, 0, 0,                                !- X,Y,Z Vertex 2 {m}
  0, -11.9433382107349, 0,                !- X,Y,Z Vertex 3 {m}
  0, -11.9433382107349, 2.4384;           !- X,Y,Z Vertex 4 {m}

OS:Surface,
  {9aae461f-6559-4d25-8a0e-6756680e800f}, !- Handle
  Surface 3,                              !- Name
  Wall,                                   !- Surface Type
  {a67063fe-b736-4bcf-be23-a74d21220cd1}, !- Construction Name
  {bef7ab90-0b8d-4af7-9057-780b0764fd00}, !- Space Name
  Adiabatic,                              !- Outside Boundary Condition
  ,                                       !- Outside Boundary Condition Object
  NoSun,                                  !- Sun Exposure
  NoWind,                                 !- Wind Exposure
  ,                                       !- View Factor to Ground
  ,                                       !- Number of Vertices
  6.63518789485271, 0, 2.4384,            !- X,Y,Z Vertex 1 {m}
  6.63518789485271, 0, 0,                 !- X,Y,Z Vertex 2 {m}
  0, 0, 0,                                !- X,Y,Z Vertex 3 {m}
  0, 0, 2.4384;                           !- X,Y,Z Vertex 4 {m}

OS:Surface,
  {ba930af2-c11b-4691-94c6-c749d228e032}, !- Handle
  Surface 4,                              !- Name
  Wall,                                   !- Surface Type
  {a67063fe-b736-4bcf-be23-a74d21220cd1}, !- Construction Name
  {bef7ab90-0b8d-4af7-9057-780b0764fd00}, !- Space Name
  Adiabatic,                              !- Outside Boundary Condition
  ,                                       !- Outside Boundary Condition Object
  NoSun,                                  !- Sun Exposure
  NoWind,                                 !- Wind Exposure
  ,                                       !- View Factor to Ground
  ,                                       !- Number of Vertices
  6.63518789485271, -11.9433382107349, 2.4384, !- X,Y,Z Vertex 1 {m}
  6.63518789485271, -11.9433382107349, 0, !- X,Y,Z Vertex 2 {m}
  6.63518789485271, 0, 0,                 !- X,Y,Z Vertex 3 {m}
  6.63518789485271, 0, 2.4384;            !- X,Y,Z Vertex 4 {m}

OS:Surface,
  {60466a68-83eb-4365-ac2b-2609df8b4470}, !- Handle
  Surface 5,                              !- Name
  Wall,                                   !- Surface Type
  {c25b5de1-5834-4c18-bba3-7d8401f0556b}, !- Construction Name
  {bef7ab90-0b8d-4af7-9057-780b0764fd00}, !- Space Name
  Outdoors,                               !- Outside Boundary Condition
  ,                                       !- Outside Boundary Condition Object
  SunExposed,                             !- Sun Exposure
  WindExposed,                            !- Wind Exposure
  ,                                       !- View Factor to Ground
  ,                                       !- Number of Vertices
  0, -11.9433382107349, 2.4384,           !- X,Y,Z Vertex 1 {m}
  0, -11.9433382107349, 0,                !- X,Y,Z Vertex 2 {m}
  6.63518789485271, -11.9433382107349, 0, !- X,Y,Z Vertex 3 {m}
  6.63518789485271, -11.9433382107349, 2.4384; !- X,Y,Z Vertex 4 {m}

OS:Surface,
  {2d1d7a14-6fee-40ab-918f-f5af6e8b4615}, !- Handle
  Surface 6,                              !- Name
  RoofCeiling,                            !- Surface Type
  {01ced80f-506e-4d63-939b-6868820ddfaa}, !- Construction Name
  {bef7ab90-0b8d-4af7-9057-780b0764fd00}, !- Space Name
  Outdoors,                               !- Outside Boundary Condition
  ,                                       !- Outside Boundary Condition Object
  SunExposed,                             !- Sun Exposure
  WindExposed,                            !- Wind Exposure
  ,                                       !- View Factor to Ground
  ,                                       !- Number of Vertices
  6.63518789485271, -11.9433382107349, 2.4384, !- X,Y,Z Vertex 1 {m}
  6.63518789485271, 0, 2.4384,            !- X,Y,Z Vertex 2 {m}
  0, 0, 2.4384,                           !- X,Y,Z Vertex 3 {m}
  0, -11.9433382107349, 2.4384;           !- X,Y,Z Vertex 4 {m}

OS:SpaceType,
  {ac39ee9f-4f13-42a3-8afc-5234767f636d}, !- Handle
  Space Type 1,                           !- Name
  ,                                       !- Default Construction Set Name
  ,                                       !- Default Schedule Set Name
  ,                                       !- Group Rendering Name
  ,                                       !- Design Specification Outdoor Air Object Name
  ,                                       !- Standards Template
  ,                                       !- Standards Building Type
  living;                                 !- Standards Space Type

OS:ThermalZone,
  {4afa3f17-f6b7-4925-8e1f-939f307a84d6}, !- Handle
  corridor zone,                          !- Name
  ,                                       !- Multiplier
  ,                                       !- Ceiling Height {m}
  ,                                       !- Volume {m3}
  ,                                       !- Floor Area {m2}
  ,                                       !- Zone Inside Convection Algorithm
  ,                                       !- Zone Outside Convection Algorithm
  ,                                       !- Zone Conditioning Equipment List Name
  {eccb981f-112b-485e-aa7d-a597a026047c}, !- Zone Air Inlet Port List
  {f2234cc6-24bc-4dd6-b85f-dfaba2bf490b}, !- Zone Air Exhaust Port List
  {b80cdd61-a2e7-4d94-a27a-c0ec4d2d2a38}, !- Zone Air Node Name
  {013755a6-be41-4c7e-948d-cbdd4a1f0501}, !- Zone Return Air Port List
  ,                                       !- Primary Daylighting Control Name
  ,                                       !- Fraction of Zone Controlled by Primary Daylighting Control
  ,                                       !- Secondary Daylighting Control Name
  ,                                       !- Fraction of Zone Controlled by Secondary Daylighting Control
  ,                                       !- Illuminance Map Name
  ,                                       !- Group Rendering Name
  ,                                       !- Thermostat Name
  No;                                     !- Use Ideal Air Loads

OS:Node,
  {51646d62-e59d-457c-82da-13f442deea33}, !- Handle
  Node 2,                                 !- Name
  {b80cdd61-a2e7-4d94-a27a-c0ec4d2d2a38}, !- Inlet Port
  ;                                       !- Outlet Port

OS:Connection,
  {b80cdd61-a2e7-4d94-a27a-c0ec4d2d2a38}, !- Handle
  {4afa3f17-f6b7-4925-8e1f-939f307a84d6}, !- Source Object
  11,                                     !- Outlet Port
  {51646d62-e59d-457c-82da-13f442deea33}, !- Target Object
  2;                                      !- Inlet Port

OS:PortList,
  {eccb981f-112b-485e-aa7d-a597a026047c}, !- Handle
  {4afa3f17-f6b7-4925-8e1f-939f307a84d6}; !- HVAC Component

OS:PortList,
  {f2234cc6-24bc-4dd6-b85f-dfaba2bf490b}, !- Handle
  {4afa3f17-f6b7-4925-8e1f-939f307a84d6}; !- HVAC Component

OS:PortList,
  {013755a6-be41-4c7e-948d-cbdd4a1f0501}, !- Handle
  {4afa3f17-f6b7-4925-8e1f-939f307a84d6}; !- HVAC Component

OS:Sizing:Zone,
  {bbfe7c1f-11f3-41a4-992b-5883de010df9}, !- Handle
  {4afa3f17-f6b7-4925-8e1f-939f307a84d6}, !- Zone or ZoneList Name
  SupplyAirTemperature,                   !- Zone Cooling Design Supply Air Temperature Input Method
  14,                                     !- Zone Cooling Design Supply Air Temperature {C}
  11.11,                                  !- Zone Cooling Design Supply Air Temperature Difference {deltaC}
  SupplyAirTemperature,                   !- Zone Heating Design Supply Air Temperature Input Method
  40,                                     !- Zone Heating Design Supply Air Temperature {C}
  11.11,                                  !- Zone Heating Design Supply Air Temperature Difference {deltaC}
  0.0085,                                 !- Zone Cooling Design Supply Air Humidity Ratio {kg-H2O/kg-air}
  0.008,                                  !- Zone Heating Design Supply Air Humidity Ratio {kg-H2O/kg-air}
  ,                                       !- Zone Heating Sizing Factor
  ,                                       !- Zone Cooling Sizing Factor
  DesignDay,                              !- Cooling Design Air Flow Method
  ,                                       !- Cooling Design Air Flow Rate {m3/s}
  ,                                       !- Cooling Minimum Air Flow per Zone Floor Area {m3/s-m2}
  ,                                       !- Cooling Minimum Air Flow {m3/s}
  ,                                       !- Cooling Minimum Air Flow Fraction
  DesignDay,                              !- Heating Design Air Flow Method
  ,                                       !- Heating Design Air Flow Rate {m3/s}
  ,                                       !- Heating Maximum Air Flow per Zone Floor Area {m3/s-m2}
  ,                                       !- Heating Maximum Air Flow {m3/s}
  ,                                       !- Heating Maximum Air Flow Fraction
  No,                                     !- Account for Dedicated Outdoor Air System
  NeutralSupplyAir,                       !- Dedicated Outdoor Air System Control Strategy
  autosize,                               !- Dedicated Outdoor Air Low Setpoint Temperature for Design {C}
  autosize;                               !- Dedicated Outdoor Air High Setpoint Temperature for Design {C}

OS:ZoneHVAC:EquipmentList,
  {6bf97b61-d928-4498-a104-bcba3f8d2428}, !- Handle
  Zone HVAC Equipment List 2,             !- Name
  {4afa3f17-f6b7-4925-8e1f-939f307a84d6}; !- Thermal Zone

OS:Space,
  {15b1263b-30ab-49ba-8ab0-d4cfe457564f}, !- Handle
  corridor space,                         !- Name
  {9d7aa301-b4f3-4681-be10-97f204d75912}, !- Space Type Name
  ,                                       !- Default Construction Set Name
  ,                                       !- Default Schedule Set Name
  ,                                       !- Direction of Relative North {deg}
  ,                                       !- X Origin {m}
  ,                                       !- Y Origin {m}
  ,                                       !- Z Origin {m}
  ,                                       !- Building Story Name
  {4afa3f17-f6b7-4925-8e1f-939f307a84d6}; !- Thermal Zone Name

OS:Surface,
  {a0bdfee1-c31e-42f1-961c-95906950f433}, !- Handle
  Surface 7,                              !- Name
  Floor,                                  !- Surface Type
  {8f58b229-4fd2-47ae-9211-7005fd8ddb6c}, !- Construction Name
  {15b1263b-30ab-49ba-8ab0-d4cfe457564f}, !- Space Name
  Surface,                                !- Outside Boundary Condition
  {c82c7ea1-2112-47a3-ab64-a8cf8dbef1b0}, !- Outside Boundary Condition Object
  NoSun,                                  !- Sun Exposure
  NoWind,                                 !- Wind Exposure
  ,                                       !- View Factor to Ground
  ,                                       !- Number of Vertices