
OS:Version,
  {0402b3b0-e561-4848-8a55-041ec0c86a46}, !- Handle
  3.3.0;                                  !- Version Identifier

OS:Building,
  {b553fee0-40b3-45d8-9276-4c217bb478e1}, !- Handle
  Building 1,                             !- Name
  ,                                       !- Building Sector Type
  315,                                    !- North Axis {deg}
  ,                                       !- Nominal Floor to Floor Height {m}
  ,                                       !- Space Type Name
  ,                                       !- Default Construction Set Name
  ,                                       !- Default Schedule Set Name
  1,                                      !- Standards Number of Stories
  1,                                      !- Standards Number of Above Ground Stories
  ,                                       !- Standards Template
  singlefamilydetached,                   !- Standards Building Type
  1;                                      !- Standards Number of Living Units

OS:Facility,
  {a086d3c7-eaa6-443c-9c01-33d032f078cc}; !- Handle

OS:Site,
  {7cc9cec7-d0b6-451a-91d6-c889c8283529}, !- Handle
  Denver-Aurora-Buckley AFB,              !- Name
  39.72,                                  !- Latitude {deg}
  -104.75,                                !- Longitude {deg}
  -7,                                     !- Time Zone {hr}
  1726,                                   !- Elevation {m}
  Suburbs;                                !- Terrain

OS:SimulationControl,
  {5d499743-4649-4e00-9ca1-f3b590cab217}, !- Handle
  ,                                       !- Do Zone Sizing Calculation
  ,                                       !- Do System Sizing Calculation
  ,                                       !- Do Plant Sizing Calculation
  No;                                     !- Run Simulation for Sizing Periods

OS:Sizing:Parameters,
  {5bec7dce-444c-44a6-b549-33c017a5c752}, !- Handle
  1.25,                                   !- Heating Sizing Factor
  1.15;                                   !- Cooling Sizing Factor

OS:Timestep,
  {af638fa4-9aaa-41b5-9965-d35c3e4ade34}, !- Handle
  4;                                      !- Number of Timesteps per Hour

OS:ShadowCalculation,
  {b6f8118b-b352-439f-8f00-6eb0323c5779}, !- Handle
  PolygonClipping,                        !- Shading Calculation Method
  ,                                       !- Shading Calculation Update Frequency Method
  20,                                     !- Shading Calculation Update Frequency
  200,                                    !- Maximum Figures in Shadow Overlap Calculations
  ,                                       !- Polygon Clipping Algorithm
  512,                                    !- Pixel Counting Resolution
  DetailedSkyDiffuseModeling,             !- Sky Diffuse Modeling Algorithm
  No,                                     !- Output External Shading Calculation Results
  No,                                     !- Disable Self-Shading Within Shading Zone Groups
  No;                                     !- Disable Self-Shading From Shading Zone Groups to Other Zones

OS:HeatBalanceAlgorithm,
  {17be605b-8592-421d-a3f6-9cd076fa02d1}, !- Handle
  ConductionTransferFunction,             !- Algorithm
  200;                                    !- Surface Temperature Upper Limit {C}

OS:RunPeriod,
  {a9eb4622-e57a-4d64-840d-7ff62ba274ce}, !- Handle
  Run Period 1,                           !- Name
  1,                                      !- Begin Month
  1,                                      !- Begin Day of Month
  12,                                     !- End Month
  31,                                     !- End Day of Month
  ,                                       !- Use Weather File Holidays and Special Days
  ,                                       !- Use Weather File Daylight Saving Period
  ,                                       !- Apply Weekend Holiday Rule
  ,                                       !- Use Weather File Rain Indicators
  ,                                       !- Use Weather File Snow Indicators
  ;                                       !- Number of Times Runperiod to be Repeated

OS:LifeCycleCost:Parameters,
  {a8a54336-10dd-4a08-82ac-4aa0f9e9d2f3}, !- Handle
  ,                                       !- Analysis Type
  ,                                       !- Discounting Convention
  ,                                       !- Inflation Approach
  ,                                       !- Real Discount Rate
  ,                                       !- Nominal Discount Rate
  ,                                       !- Inflation
  ,                                       !- Base Date Month
  ,                                       !- Base Date Year
  ,                                       !- Service Date Month
  ,                                       !- Service Date Year
  ;                                       !- Length of Study Period in Years

OS:SurfaceConvectionAlgorithm:Outside,
  {a50e926a-4c02-45dc-9fc5-daea7d911fb8}, !- Handle
  DOE-2;                                  !- Algorithm

OS:SurfaceConvectionAlgorithm:Inside,
  {5f8b9c63-7e8e-4512-ae0c-3bfe9a5549bb}, !- Handle
  TARP;                                   !- Algorithm

OS:ZoneCapacitanceMultiplier:ResearchSpecial,
  {f41fdf87-c868-4e66-b0fd-1cecf65752de}, !- Handle
  ,                                       !- Temperature Capacity Multiplier
  15,                                     !- Humidity Capacity Multiplier
  ;                                       !- Carbon Dioxide Capacity Multiplier

OS:YearDescription,
  {5166262d-75cf-4015-a490-d821d7fb2313}, !- Handle
  ,                                       !- Calendar Year
  Sunday,                                 !- Day of Week for Start Day
  ;                                       !- Is Leap Year

OS:AdditionalProperties,
  {250045a8-dd89-4bd1-9038-c8d7627794a6}, !- Handle
  {b553fee0-40b3-45d8-9276-4c217bb478e1}, !- Object Name
  Building ID,                            !- Feature Name 1
  Integer,                                !- Feature Data Type 1
  316423,                                 !- Feature Value 1
  num_occupants,                          !- Feature Name 2
  Integer,                                !- Feature Data Type 2
  1,                                      !- Feature Value 2
  Schedules Path,                         !- Feature Name 3
  String,                                 !- Feature Data Type 3
  /var/simdata/openstudio/run/schedules.csv, !- Feature Value 3
  Total Units Modeled,                    !- Feature Name 4
  Integer,                                !- Feature Data Type 4
  1,                                      !- Feature Value 4
  has_water_heater_flue,                  !- Feature Name 5
  Boolean,                                !- Feature Data Type 5
  false,                                  !- Feature Value 5
  has_hvac_flue,                          !- Feature Name 6
  Boolean,                                !- Feature Data Type 6
  false,                                  !- Feature Value 6
  has_fireplace_chimney,                  !- Feature Name 7
  Boolean,                                !- Feature Data Type 7
  false;                                  !- Feature Value 7

OS:ClimateZones,
  {8142be3b-2081-4245-9532-9ead771f0d8f}, !- Handle
  Building America,                       !- Climate Zone Institution Name 1
  ,                                       !- Climate Zone Document Name 1
  0,                                      !- Climate Zone Document Year 1
  Cold,                                   !- Climate Zone Value 1
  ASHRAE,                                 !- Climate Zone Institution Name 2
  ANSI/ASHRAE Standard 169,               !- Climate Zone Document Name 2
  2006,                                   !- Climate Zone Document Year 2
  ,                                       !- Climate Zone Value 2
  CEC,                                    !- Climate Zone Institution Name 3
  California Climate Zone Descriptions,   !- Climate Zone Document Name 3
  1995,                                   !- Climate Zone Document Year 3
  ;                                       !- Climate Zone Value 3

OS:Site:WaterMainsTemperature,
  {0979aa74-6adb-4e3c-8fda-48d85253e2f6}, !- Handle
  Correlation,                            !- Calculation Method
  ,                                       !- Temperature Schedule Name
  9.93505707762559,                       !- Annual Average Outdoor Air Temperature {C}
  27.6077092933948;                       !- Maximum Difference In Monthly Average Outdoor Air Temperatures {deltaC}

OS:RunPeriodControl:DaylightSavingTime,
  {66460e2c-1a9e-4078-877a-b992bef9a228}, !- Handle
  3/10,                                   !- Start Date
  11/3;                                   !- End Date

OS:Site:GroundTemperature:Deep,
  {d2459443-8388-477c-b12e-e3b0d59f60fb}, !- Handle
  9.93505707762559,                       !- January Deep Ground Temperature {C}
  9.93505707762559,                       !- February Deep Ground Temperature {C}
  9.93505707762559,                       !- March Deep Ground Temperature {C}
  9.93505707762559,                       !- April Deep Ground Temperature {C}
  9.93505707762559,                       !- May Deep Ground Temperature {C}
  9.93505707762559,                       !- June Deep Ground Temperature {C}
  9.93505707762559,                       !- July Deep Ground Temperature {C}
  9.93505707762559,                       !- August Deep Ground Temperature {C}
  9.93505707762559,                       !- September Deep Ground Temperature {C}
  9.93505707762559,                       !- October Deep Ground Temperature {C}
  9.93505707762559,                       !- November Deep Ground Temperature {C}
  9.93505707762559;                       !- December Deep Ground Temperature {C}

OS:ThermalZone,
  {189829b0-f903-4e4a-acdd-6e244d818255}, !- Handle
  living zone,                            !- Name
  ,                                       !- Multiplier
  ,                                       !- Ceiling Height {m}
  ,                                       !- Volume {m3}
  ,                                       !- Floor Area {m2}
  ,                                       !- Zone Inside Convection Algorithm
  ,                                       !- Zone Outside Convection Algorithm
  ,                                       !- Zone Conditioning Equipment List Name
  {f7b96ce7-4d94-4790-9b7c-40c5f30fb077}, !- Zone Air Inlet Port List
  {f35c2236-d434-41e8-adde-96cc7feef94c}, !- Zone Air Exhaust Port List
  {d8793852-35fd-49a9-a207-0f35ce287090}, !- Zone Air Node Name
  {eaca7f51-1687-4842-a061-b227e8e8125d}, !- Zone Return Air Port List
  ,                                       !- Primary Daylighting Control Name
  ,                                       !- Fraction of Zone Controlled by Primary Daylighting Control
  ,                                       !- Secondary Daylighting Control Name
  ,                                       !- Fraction of Zone Controlled by Secondary Daylighting Control
  ,                                       !- Illuminance Map Name
  ,                                       !- Group Rendering Name
  {1c8b691e-e19a-4742-9d25-1d17eb6d2d14}, !- Thermostat Name
  No;                                     !- Use Ideal Air Loads

OS:Node,
  {ae079b09-2590-4405-ab1c-0b344a7d5a10}, !- Handle
  Node 1,                                 !- Name
  {d8793852-35fd-49a9-a207-0f35ce287090}, !- Inlet Port
  ;                                       !- Outlet Port

OS:Connection,
  {d8793852-35fd-49a9-a207-0f35ce287090}, !- Handle
  {189829b0-f903-4e4a-acdd-6e244d818255}, !- Source Object
  11,                                     !- Outlet Port
  {ae079b09-2590-4405-ab1c-0b344a7d5a10}, !- Target Object
  2;                                      !- Inlet Port

OS:PortList,
  {f7b96ce7-4d94-4790-9b7c-40c5f30fb077}, !- Handle
  {189829b0-f903-4e4a-acdd-6e244d818255}, !- HVAC Component
  {d17aab9d-0563-4754-8925-236522a21000}, !- Port 1
  {3cceed19-24dc-4825-904e-b36f847b5d93}; !- Port 2

OS:PortList,
  {f35c2236-d434-41e8-adde-96cc7feef94c}, !- Handle
  {189829b0-f903-4e4a-acdd-6e244d818255}; !- HVAC Component

OS:PortList,
  {eaca7f51-1687-4842-a061-b227e8e8125d}, !- Handle
  {189829b0-f903-4e4a-acdd-6e244d818255}, !- HVAC Component
  {a2edf0e2-796b-4d1b-95bd-647564fe1a12}, !- Port 1
  {7b313d7f-e801-4702-ab4d-26987105b0a4}; !- Port 2

OS:Sizing:Zone,
  {220f1d68-e571-4702-a79f-f8945c9e11e7}, !- Handle
  {189829b0-f903-4e4a-acdd-6e244d818255}, !- Zone or ZoneList Name
  SupplyAirTemperature,                   !- Zone Cooling Design Supply Air Temperature Input Method
  14,                                     !- Zone Cooling Design Supply Air Temperature {C}
  11.11,                                  !- Zone Cooling Design Supply Air Temperature Difference {deltaC}
  SupplyAirTemperature,                   !- Zone Heating Design Supply Air Temperature Input Method
  40,                                     !- Zone Heating Design Supply Air Temperature {C}
  11.11,                                  !- Zone Heating Design Supply Air Temperature Difference {deltaC}
  0.0085,                                 !- Zone Cooling Design Supply Air Humidity Ratio {kg-H2O/kg-air}
  0.008,                                  !- Zone Heating Design Supply Air Humidity Ratio {kg-H2O/kg-air}
  ,                                       !- Zone Heating Sizing Factor
  ,                                       !- Zone Cooling Sizing Factor
  DesignDay,                              !- Cooling Design Air Flow Method
  ,                                       !- Cooling Design Air Flow Rate {m3/s}
  ,                                       !- Cooling Minimum Air Flow per Zone Floor Area {m3/s-m2}
  ,                                       !- Cooling Minimum Air Flow {m3/s}
  ,                                       !- Cooling Minimum Air Flow Fraction
  DesignDay,                              !- Heating Design Air Flow Method
  ,                                       !- Heating Design Air Flow Rate {m3/s}
  ,                                       !- Heating Maximum Air Flow per Zone Floor Area {m3/s-m2}
  ,                                       !- Heating Maximum Air Flow {m3/s}
  ,                                       !- Heating Maximum Air Flow Fraction
  No,                                     !- Account for Dedicated Outdoor Air System
  NeutralSupplyAir,                       !- Dedicated Outdoor Air System Control Strategy
  autosize,                               !- Dedicated Outdoor Air Low Setpoint Temperature for Design {C}
  autosize;                               !- Dedicated Outdoor Air High Setpoint Temperature for Design {C}

OS:ZoneHVAC:EquipmentList,
  {6164fe9a-fd41-4789-88ce-936461fda496}, !- Handle
  Zone HVAC Equipment List 1,             !- Name
  {189829b0-f903-4e4a-acdd-6e244d818255}, !- Thermal Zone
  SequentialLoad,                         !- Load Distribution Scheme
  {8fcabe12-9dbc-43df-b628-33c2d8689101}, !- Zone Equipment 1
  1,                                      !- Zone Equipment Cooling Sequence 1
  1,                                      !- Zone Equipment Heating or No-Load Sequence 1
  ,                                       !- Zone Equipment Sequential Cooling Fraction Schedule Name 1
  ,                                       !- Zone Equipment Sequential Heating Fraction Schedule Name 1
  {b3024f84-55cc-4d7e-a4fb-6d8cfb03001e}, !- Zone Equipment 2
  2,                                      !- Zone Equipment Cooling Sequence 2
  2,                                      !- Zone Equipment Heating or No-Load Sequence 2
  ,                                       !- Zone Equipment Sequential Cooling Fraction Schedule Name 2
  ;                                       !- Zone Equipment Sequential Heating Fraction Schedule Name 2

OS:ThermalZone,
  {d6193c28-7327-4ab4-9bc9-12a118aae0fd}, !- Handle
  garage zone,                            !- Name
  ,                                       !- Multiplier
  ,                                       !- Ceiling Height {m}
  ,                                       !- Volume {m3}
  ,                                       !- Floor Area {m2}
  ,                                       !- Zone Inside Convection Algorithm
  ,                                       !- Zone Outside Convection Algorithm
  ,                                       !- Zone Conditioning Equipment List Name
  {63b9d18e-8d09-4095-aa0b-d2da65b861ba}, !- Zone Air Inlet Port List
  {0b321ffa-31e9-49d5-bb9a-d5b36a0fca2b}, !- Zone Air Exhaust Port List
  {9c632853-5ea4-41f7-9d53-0782193efa97}, !- Zone Air Node Name
  {3889b2cc-7bd3-4175-89b7-cd9c3f830cfb}, !- Zone Return Air Port List
  ,                                       !- Primary Daylighting Control Name
  ,                                       !- Fraction of Zone Controlled by Primary Daylighting Control
  ,                                       !- Secondary Daylighting Control Name
  ,                                       !- Fraction of Zone Controlled by Secondary Daylighting Control
  ,                                       !- Illuminance Map Name
  ,                                       !- Group Rendering Name
  ,                                       !- Thermostat Name
  No;                                     !- Use Ideal Air Loads

OS:Node,
  {c9b1eb68-49a8-4ccb-a940-e59faa9edfd3}, !- Handle
  Node 2,                                 !- Name
  {9c632853-5ea4-41f7-9d53-0782193efa97}, !- Inlet Port
  ;                                       !- Outlet Port

OS:Connection,
  {9c632853-5ea4-41f7-9d53-0782193efa97}, !- Handle
  {d6193c28-7327-4ab4-9bc9-12a118aae0fd}, !- Source Object
  11,                                     !- Outlet Port
  {c9b1eb68-49a8-4ccb-a940-e59faa9edfd3}, !- Target Object
  2;                                      !- Inlet Port

OS:PortList,
  {63b9d18e-8d09-4095-aa0b-d2da65b861ba}, !- Handle
  {d6193c28-7327-4ab4-9bc9-12a118aae0fd}; !- HVAC Component

OS:PortList,
  {0b321ffa-31e9-49d5-bb9a-d5b36a0fca2b}, !- Handle
  {d6193c28-7327-4ab4-9bc9-12a118aae0fd}; !- HVAC Component

OS:PortList,
  {3889b2cc-7bd3-4175-89b7-cd9c3f830cfb}, !- Handle
  {d6193c28-7327-4ab4-9bc9-12a118aae0fd}; !- HVAC Component

OS:Sizing:Zone,
  {2d09c640-ac71-49ca-99e1-c17fe8c103b5}, !- Handle
  {d6193c28-7327-4ab4-9bc9-12a118aae0fd}, !- Zone or ZoneList Name
  SupplyAirTemperature,                   !- Zone Cooling Design Supply Air Temperature Input Method
  14,                                     !- Zone Cooling Design Supply Air Temperature {C}
  11.11,                                  !- Zone Cooling Design Supply Air Temperature Difference {deltaC}
  SupplyAirTemperature,                   !- Zone Heating Design Supply Air Temperature Input Method
  40,                                     !- Zone Heating Design Supply Air Temperature {C}
  11.11,                                  !- Zone Heating Design Supply Air Temperature Difference {deltaC}
  0.0085,                                 !- Zone Cooling Design Supply Air Humidity Ratio {kg-H2O/kg-air}
  0.008,                                  !- Zone Heating Design Supply Air Humidity Ratio {kg-H2O/kg-air}
  ,                                       !- Zone Heating Sizing Factor
  ,                                       !- Zone Cooling Sizing Factor
  DesignDay,                              !- Cooling Design Air Flow Method
  ,                                       !- Cooling Design Air Flow Rate {m3/s}
  ,                                       !- Cooling Minimum Air Flow per Zone Floor Area {m3/s-m2}
  ,                                       !- Cooling Minimum Air Flow {m3/s}
  ,                                       !- Cooling Minimum Air Flow Fraction
  DesignDay,                              !- Heating Design Air Flow Method
  ,                                       !- Heating Design Air Flow Rate {m3/s}
  ,                                       !- Heating Maximum Air Flow per Zone Floor Area {m3/s-m2}
  ,                                       !- Heating Maximum Air Flow {m3/s}
  ,                                       !- Heating Maximum Air Flow Fraction
  No,                                     !- Account for Dedicated Outdoor Air System
  NeutralSupplyAir,                       !- Dedicated Outdoor Air System Control Strategy
  autosize,                               !- Dedicated Outdoor Air Low Setpoint Temperature for Design {C}
  autosize;                               !- Dedicated Outdoor Air High Setpoint Temperature for Design {C}

OS:ZoneHVAC:EquipmentList,
  {d6c22060-0af4-43e6-8aca-8300200debcd}, !- Handle
  Zone HVAC Equipment List 2,             !- Name
  {d6193c28-7327-4ab4-9bc9-12a118aae0fd}; !- Thermal Zone

OS:Space,
  {cd113649-47e0-4c41-9503-60173576b3af}, !- Handle
  garage space,                           !- Name
  {b84dc3bd-9740-434b-a047-db3d3ebbaa83}, !- Space Type Name
  ,                                       !- Default Construction Set Name
  ,                                       !- Default Schedule Set Name
  -0,                                     !- Direction of Relative North {deg}
  0,                                      !- X Origin {m}
  0,                                      !- Y Origin {m}
  0,                                      !- Z Origin {m}
  ,                                       !- Building Story Name
  {d6193c28-7327-4ab4-9bc9-12a118aae0fd}; !- Thermal Zone Name

OS:Surface,
  {353de05b-4084-49f6-8cb4-06183774cbe2}, !- Handle
  Surface 1,                              !- Name
  Floor,                                  !- Surface Type
  {1f77b3ed-d66f-4786-a38b-bc7549d6f74d}, !- Construction Name
  {cd113649-47e0-4c41-9503-60173576b3af}, !- Space Name
  Foundation,                             !- Outside Boundary Condition
  {22a9a771-4eea-4393-adf1-e787db4abc4f}, !- Outside Boundary Condition Object
  NoSun,                                  !- Sun Exposure
  NoWind,                                 !- Wind Exposure
  ,                                       !- View Factor to Ground
  ,                                       !- Number of Vertices
  11.4452323107952, -3.6576, 0,           !- X,Y,Z Vertex 1 {m}
  11.4452323107952, 3.6576, 0,            !- X,Y,Z Vertex 2 {m}
  15.1028323107952, 3.6576, 0,            !- X,Y,Z Vertex 3 {m}
  15.1028323107952, -3.6576, 0;           !- X,Y,Z Vertex 4 {m}

OS:Surface,
  {a5820d78-086f-4842-b099-c99ba851ff63}, !- Handle
  Surface 2,                              !- Name
  Wall,                                   !- Surface Type
  {8fdc766b-0b10-4a5a-b059-1021fff59fb1}, !- Construction Name
  {cd113649-47e0-4c41-9503-60173576b3af}, !- Space Name
  Surface,                                !- Outside Boundary Condition
  {d6a5060f-36a8-498e-99e9-a15b15406cf9}, !- Outside Boundary Condition Object
  NoSun,                                  !- Sun Exposure
  NoWind,                                 !- Wind Exposure
  ,                                       !- View Factor to Ground
  ,                                       !- Number of Vertices
  11.4452323107952, 3.6576, 2.4384,       !- X,Y,Z Vertex 1 {m}
  11.4452323107952, 3.6576, 0,            !- X,Y,Z Vertex 2 {m}
  11.4452323107952, 0, 0,                 !- X,Y,Z Vertex 3 {m}
  11.4452323107952, 0, 2.4384;            !- X,Y,Z Vertex 4 {m}

OS:Surface,
  {c2e7ad58-4f7b-4004-8759-08f5aa273e07}, !- Handle
  Surface 3,                              !- Name
  Wall,                                   !- Surface Type
  {8fdc766b-0b10-4a5a-b059-1021fff59fb1}, !- Construction Name
  {cd113649-47e0-4c41-9503-60173576b3af}, !- Space Name
  Surface,                                !- Outside Boundary Condition
  {903b3a33-1438-43b0-bde9-86aed0b2f2b5}, !- Outside Boundary Condition Object
  NoSun,                                  !- Sun Exposure
  NoWind,                                 !- Wind Exposure
  ,                                       !- View Factor to Ground
  ,                                       !- Number of Vertices
  15.1028323107952, 3.6576, 2.4384,       !- X,Y,Z Vertex 1 {m}
  15.1028323107952, 3.6576, 0,            !- X,Y,Z Vertex 2 {m}
  11.4452323107952, 3.6576, 0,            !- X,Y,Z Vertex 3 {m}
  11.4452323107952, 3.6576, 2.4384;       !- X,Y,Z Vertex 4 {m}

OS:Surface,
  {55fb0a47-bc6b-4e1d-9d2c-423ade01e786}, !- Handle
  Surface 4,                              !- Name
  Wall,                                   !- Surface Type
  {a308c6f5-d2b4-4386-adb4-4c146986e51b}, !- Construction Name
  {cd113649-47e0-4c41-9503-60173576b3af}, !- Space Name
  Outdoors,                               !- Outside Boundary Condition
  ,                                       !- Outside Boundary Condition Object
  SunExposed,                             !- Sun Exposure
  WindExposed,                            !- Wind Exposure
  ,                                       !- View Factor to Ground
  ,                                       !- Number of Vertices
  15.1028323107952, -3.6576, 2.4384,      !- X,Y,Z Vertex 1 {m}
  15.1028323107952, -3.6576, 0,           !- X,Y,Z Vertex 2 {m}
  15.1028323107952, 3.6576, 0,            !- X,Y,Z Vertex 3 {m}
  15.1028323107952, 3.6576, 2.4384;       !- X,Y,Z Vertex 4 {m}

OS:Surface,
  {99c3d950-8c51-4383-97eb-63ddbc8f0319}, !- Handle
  Surface 5,                              !- Name
  Wall,                                   !- Surface Type
  {a308c6f5-d2b4-4386-adb4-4c146986e51b}, !- Construction Name
  {cd113649-47e0-4c41-9503-60173576b3af}, !- Space Name
  Outdoors,                               !- Outside Boundary Condition
  ,                                       !- Outside Boundary Condition Object
  SunExposed,                             !- Sun Exposure
  WindExposed,                            !- Wind Exposure
  ,                                       !- View Factor to Ground
  ,                                       !- Number of Vertices
  11.4452323107952, -3.6576, 2.4384,      !- X,Y,Z Vertex 1 {m}
  11.4452323107952, -3.6576, 0,           !- X,Y,Z Vertex 2 {m}
  15.1028323107952, -3.6576, 0,           !- X,Y,Z Vertex 3 {m}
  15.1028323107952, -3.6576, 2.4384;      !- X,Y,Z Vertex 4 {m}

OS:Surface,
  {48b490bd-9792-4545-8b57-a4bb91302e3f}, !- Handle
  Surface 6,                              !- Name
  RoofCeiling,                            !- Surface Type
  {0ec7dd2f-a647-4a4f-b7e4-553c6599e4d9}, !- Construction Name
  {cd113649-47e0-4c41-9503-60173576b3af}, !- Space Name
  Surface,                                !- Outside Boundary Condition
  {89c24aa3-6d4a-4449-b45f-5743e734ec6e}, !- Outside Boundary Condition Object
  NoSun,                                  !- Sun Exposure
  NoWind,                                 !- Wind Exposure
  ,                                       !- View Factor to Ground
  ,                                       !- Number of Vertices
  15.1028323107952, 0, 2.4384,            !- X,Y,Z Vertex 1 {m}
  15.1028323107952, 3.6576, 2.4384,       !- X,Y,Z Vertex 2 {m}
  11.4452323107952, 3.6576, 2.4384,       !- X,Y,Z Vertex 3 {m}
  11.4452323107952, -7.55142207875537e-07, 2.4384; !- X,Y,Z Vertex 4 {m}

OS:SpaceType,
  {b84dc3bd-9740-434b-a047-db3d3ebbaa83}, !- Handle
  Space Type 1,                           !- Name
  ,                                       !- Default Construction Set Name
  ,                                       !- Default Schedule Set Name
  ,                                       !- Group Rendering Name
  ,                                       !- Design Specification Outdoor Air Object Name
  ,                                       !- Standards Template
  ,                                       !- Standards Building Type
  garage;                                 !- Standards Space Type

OS:Space,
  {99f4457e-52ab-499f-86e5-9ef0a4e8b7cf}, !- Handle
  living space,                           !- Name
  {46d56486-7634-48aa-8f78-af27da6ce6e9}, !- Space Type Name
  ,                                       !- Default Construction Set Name
  ,                                       !- Default Schedule Set Name
  -0,                                     !- Direction of Relative North {deg}
  0,                                      !- X Origin {m}
  0,                                      !- Y Origin {m}
  0,                                      !- Z Origin {m}
  ,                                       !- Building Story Name
  {189829b0-f903-4e4a-acdd-6e244d818255}, !- Thermal Zone Name
  ,                                       !- Part of Total Floor Area
  ,                                       !- Design Specification Outdoor Air Object Name
  {33ccab0e-67e6-462d-b9fc-872391408e58}; !- Building Unit Name

OS:Surface,
  {e63598c1-c81d-4221-86db-daceb6d030d3}, !- Handle
  Surface 7,                              !- Name
  Floor,                                  !- Surface Type
  {3f9ea416-6db8-4fe9-9908-293a1bb4f87b}, !- Construction Name
  {99f4457e-52ab-499f-86e5-9ef0a4e8b7cf}, !- Space Name
  Surface,                                !- Outside Boundary Condition
  {ce4cfb86-f8ba-4ce1-a92b-4a5ecfedac81}, !- Outside Boundary Condition Object
  NoSun,                                  !- Sun Exposure
  NoWind,                                 !- Wind Exposure
  ,                                       !- View Factor to Ground
  ,                                       !- Number of Vertices
  0, 0, 0,                                !- X,Y,Z Vertex 1 {m}
  0, 8.39046239488623, 0,                 !- X,Y,Z Vertex 2 {m}
  15.1028323107952, 8.39046239488623, 0,  !- X,Y,Z Vertex 3 {m}
  15.1028323107952, 3.6576, 0,            !- X,Y,Z Vertex 4 {m}
  11.4452323107952, 3.6576, 0,            !- X,Y,Z Vertex 5 {m}
  11.4452323107952, 0, 0;                 !- X,Y,Z Vertex 6 {m}

OS:Surface,
  {71c4a27e-e46b-4e75-89d9-7f17418f5a5d}, !- Handle