
OS:Version,
  {2bd615d8-3304-48a0-a4cf-74b2f2a87a35}, !- Handle
  3.2.1;                                  !- Version Identifier

OS:Building,
  {94b3c8b6-4057-4e20-b23b-a17bd7679ce7}, !- Handle
  Building 1,                             !- Name
  ,                                       !- Building Sector Type
  225,                                    !- North Axis {deg}
  ,                                       !- Nominal Floor to Floor Height {m}
  ,                                       !- Space Type Name
  ,                                       !- Default Construction Set Name
  ,                                       !- Default Schedule Set Name
  1,                                      !- Standards Number of Stories
  1,                                      !- Standards Number of Above Ground Stories
  ,                                       !- Standards Template
  singlefamilydetached,                   !- Standards Building Type
  1;                                      !- Standards Number of Living Units

OS:Facility,
  {d25f27ed-4034-4c61-89c7-7ed6eb58574a}; !- Handle

OS:Site,
  {81501285-d183-46e8-9591-534f7c511192}, !- Handle
  Nashville International Ap_TN_USA,      !- Name
  36.12,                                  !- Latitude {deg}
  -86.68,                                 !- Longitude {deg}
  -6,                                     !- Time Zone {hr}
  177,                                    !- Elevation {m}
  Suburbs;                                !- Terrain

OS:SimulationControl,
  {194d98fe-c2d8-4534-b717-3b1709c7aa3f}, !- Handle
  ,                                       !- Do Zone Sizing Calculation
  ,                                       !- Do System Sizing Calculation
  ,                                       !- Do Plant Sizing Calculation
  No;                                     !- Run Simulation for Sizing Periods

OS:Sizing:Parameters,
  {9eae71e6-70dc-4194-8cef-32cfb9ae83b0}, !- Handle
  1.25,                                   !- Heating Sizing Factor
  1.15;                                   !- Cooling Sizing Factor

OS:Timestep,
  {60285183-9f26-4f23-9a04-89c2820875fa}, !- Handle
  4;                                      !- Number of Timesteps per Hour

OS:ShadowCalculation,
  {c7c1c2c3-ba6b-4126-a38c-86151cfec49e}, !- Handle
  PolygonClipping,                        !- Shading Calculation Method
  ,                                       !- Shading Calculation Update Frequency Method
  20,                                     !- Shading Calculation Update Frequency
  200,                                    !- Maximum Figures in Shadow Overlap Calculations
  ,                                       !- Polygon Clipping Algorithm
  512,                                    !- Pixel Counting Resolution
  DetailedSkyDiffuseModeling,             !- Sky Diffuse Modeling Algorithm
  No,                                     !- Output External Shading Calculation Results
  No,                                     !- Disable Self-Shading Within Shading Zone Groups
  No;                                     !- Disable Self-Shading From Shading Zone Groups to Other Zones

OS:HeatBalanceAlgorithm,
  {8aadfeb3-cfa1-4e86-be79-f0a56bd28316}, !- Handle
  ConductionTransferFunction,             !- Algorithm
  200;                                    !- Surface Temperature Upper Limit {C}

OS:RunPeriod,
  {0a6a966d-fbeb-45c0-bff2-36c79a9d00d4}, !- Handle
  Run Period 1,                           !- Name
  1,                                      !- Begin Month
  1,                                      !- Begin Day of Month
  12,                                     !- End Month
  31,                                     !- End Day of Month
  ,                                       !- Use Weather File Holidays and Special Days
  ,                                       !- Use Weather File Daylight Saving Period
  ,                                       !- Apply Weekend Holiday Rule
  ,                                       !- Use Weather File Rain Indicators
  ,                                       !- Use Weather File Snow Indicators
  ;                                       !- Number of Times Runperiod to be Repeated

OS:LifeCycleCost:Parameters,
  {d18ce497-f524-4cfd-b57a-06eda24e04fa}, !- Handle
  ,                                       !- Analysis Type
  ,                                       !- Discounting Convention
  ,                                       !- Inflation Approach
  ,                                       !- Real Discount Rate
  ,                                       !- Nominal Discount Rate
  ,                                       !- Inflation
  ,                                       !- Base Date Month
  ,                                       !- Base Date Year
  ,                                       !- Service Date Month
  ,                                       !- Service Date Year
  ;                                       !- Length of Study Period in Years

OS:SurfaceConvectionAlgorithm:Outside,
  {f24cdce2-49f9-458d-a37a-cdf34021d15c}, !- Handle
  DOE-2;                                  !- Algorithm

OS:SurfaceConvectionAlgorithm:Inside,
  {6bd5df95-31eb-45af-a17f-cc38cc6e4855}, !- Handle
  TARP;                                   !- Algorithm

OS:ZoneCapacitanceMultiplier:ResearchSpecial,
  {a116f130-d974-4378-a53e-61f3f4b74092}, !- Handle
  ,                                       !- Temperature Capacity Multiplier
  15,                                     !- Humidity Capacity Multiplier
  ;                                       !- Carbon Dioxide Capacity Multiplier

OS:YearDescription,
  {62d52380-0d7a-4399-97d9-564e013598fb}, !- Handle
  2018,                                   !- Calendar Year
  ,                                       !- Day of Week for Start Day
  ;                                       !- Is Leap Year

OS:AdditionalProperties,
  {88f45270-c052-46ca-a3b5-658e7f89a578}, !- Handle
  {94b3c8b6-4057-4e20-b23b-a17bd7679ce7}, !- Object Name
  Building ID,                            !- Feature Name 1
  Integer,                                !- Feature Data Type 1
  2068,                                   !- Feature Value 1
  num_occupants,                          !- Feature Name 2
  Integer,                                !- Feature Data Type 2
  1,                                      !- Feature Value 2
  Schedules Path,                         !- Feature Name 3
  String,                                 !- Feature Data Type 3
  /var/simdata/openstudio/run/schedules.csv, !- Feature Value 3
  Total Units Modeled,                    !- Feature Name 4
  Integer,                                !- Feature Data Type 4
  1,                                      !- Feature Value 4
  has_water_heater_flue,                  !- Feature Name 5
  Boolean,                                !- Feature Data Type 5
  false,                                  !- Feature Value 5
  has_fireplace_chimney,                  !- Feature Name 6
  Boolean,                                !- Feature Data Type 6
  false;                                  !- Feature Value 6

OS:WeatherFile,
  {9f325961-d431-4609-b0d2-31efd5c60eaa}, !- Handle
  Nashville International Ap,             !- City
  TN,                                     !- State Province Region
  USA,                                    !- Country
  TMY3,                                   !- Data Source
  723270,                                 !- WMO Number
  36.12,                                  !- Latitude {deg}
  -86.68,                                 !- Longitude {deg}
  -6,                                     !- Time Zone {hr}
  177,                                    !- Elevation {m}
  /weather/G4700370.epw,                  !- Url
  3CDA6DC5;                               !- Checksum

OS:AdditionalProperties,
  {3fe84e01-8821-44c9-bfbb-046e5491ec97}, !- Handle
  {9f325961-d431-4609-b0d2-31efd5c60eaa}, !- Object Name
  EPWHeaderCity,                          !- Feature Name 1
  String,                                 !- Feature Data Type 1
  Nashville International Ap,             !- Feature Value 1
  EPWHeaderState,                         !- Feature Name 2
  String,                                 !- Feature Data Type 2
  TN,                                     !- Feature Value 2
  EPWHeaderCountry,                       !- Feature Name 3
  String,                                 !- Feature Data Type 3
  USA,                                    !- Feature Value 3
  EPWHeaderDataSource,                    !- Feature Name 4
  String,                                 !- Feature Data Type 4
  TMY3,                                   !- Feature Value 4
  EPWHeaderStation,                       !- Feature Name 5
  String,                                 !- Feature Data Type 5
  723270,                                 !- Feature Value 5
  EPWHeaderLatitude,                      !- Feature Name 6
  Double,                                 !- Feature Data Type 6
  36.119999999999997,                     !- Feature Value 6
  EPWHeaderLongitude,                     !- Feature Name 7
  Double,                                 !- Feature Data Type 7
  -86.680000000000007,                    !- Feature Value 7
  EPWHeaderTimezone,                      !- Feature Name 8
  Double,                                 !- Feature Data Type 8
  -6,                                     !- Feature Value 8
  EPWHeaderAltitude,                      !- Feature Name 9
  Double,                                 !- Feature Data Type 9
  580.70866141732279,                     !- Feature Value 9
  EPWHeaderLocalPressure,                 !- Feature Name 10
  Double,                                 !- Feature Data Type 10
  0.9788566434965118,                     !- Feature Value 10
  EPWHeaderRecordsPerHour,                !- Feature Name 11
  Double,                                 !- Feature Data Type 11
  1,                                      !- Feature Value 11
  EPWDataAnnualAvgDrybulb,                !- Feature Name 12
  Double,                                 !- Feature Data Type 12
  59.720842465753485,                     !- Feature Value 12
  EPWDataAnnualMinDrybulb,                !- Feature Name 13
  Double,                                 !- Feature Data Type 13
  6.0799999999999983,                     !- Feature Value 13
  EPWDataAnnualMaxDrybulb,                !- Feature Name 14
  Double,                                 !- Feature Data Type 14
  98.060000000000002,                     !- Feature Value 14
  EPWDataCDD50F,                          !- Feature Name 15
  Double,                                 !- Feature Data Type 15
  4873.1100000000024,                     !- Feature Value 15
  EPWDataCDD65F,                          !- Feature Name 16
  Double,                                 !- Feature Data Type 16
  1738.1550000000004,                     !- Feature Value 16
  EPWDataHDD50F,                          !- Feature Name 17
  Double,                                 !- Feature Data Type 17
  1325.0024999999998,                     !- Feature Value 17
  EPWDataHDD65F,                          !- Feature Name 18
  Double,                                 !- Feature Data Type 18
  3665.0474999999988,                     !- Feature Value 18
  EPWDataAnnualAvgWindspeed,              !- Feature Name 19
  Double,                                 !- Feature Data Type 19
  3.3546803652965531,                     !- Feature Value 19
  EPWDataMonthlyAvgDrybulbs,              !- Feature Name 20
  String,                                 !- Feature Data Type 20
  36.34443548387096&#4436.58625&#4453.51725806451614&#4458.858&#4468.4081451612903&#4476.113&#4480.22354838709674&#4479.32161290322574&#4471.78900000000002&#4460.21427419354839&#4452.331&#4441.35661290322581, !- Feature Value 20
  EPWDataGroundMonthlyTemps,              !- Feature Name 21
  String,                                 !- Feature Data Type 21
  51.81443453122722&#4448.45845288889285&#4448.18969384370854&#4449.78227861157819&#4456.175618996578635&#4462.539176489868&#4468.05604074099955&#4471.55083855958031&#4471.84774082982875&#4469.00531019975807&#4463.62912922606273&#4457.46077975744225, !- Feature Value 21
  EPWDataWSF,                             !- Feature Name 22
  Double,                                 !- Feature Data Type 22
  0.44,                                   !- Feature Value 22
  EPWDataMonthlyAvgDailyHighDrybulbs,     !- Feature Name 23
  String,                                 !- Feature Data Type 23
  44.24580645161291&#4444.78642857142857&#4463.656774193548394&#4470.094&#4478.87548387096774&#4486.26400000000002&#4490.03548387096774&#4489.06&#4482.034&#4470.83935483870968&#4462.138&#4451.32967741935484, !- Feature Value 23
  EPWDataMonthlyAvgDailyLowDrybulbs,      !- Feature Name 24
  String,                                 !- Feature Data Type 24
  28.086451612903225&#4427.975714285714286&#4442.51548387096774&#4446.226&#4458.07677419354839&#4465.48599999999999&#4471.10064516129033&#4470.29354838709678&#4461.489999999999995&#4449.26258064516129&#4440.466&#4431.843225806451613, !- Feature Value 24
  EPWDesignHeatingDrybulb,                !- Feature Name 25
  Double,                                 !- Feature Data Type 25
  18.32,                                  !- Feature Value 25
  EPWDesignHeatingWindspeed,              !- Feature Name 26
  Double,                                 !- Feature Data Type 26
  9.3000000000000007,                     !- Feature Value 26
  EPWDesignCoolingDrybulb,                !- Feature Name 27
  Double,                                 !- Feature Data Type 27
  92.120000000000005,                     !- Feature Value 27
  EPWDesignCoolingWetbulb,                !- Feature Name 28
  Double,                                 !- Feature Data Type 28
  74.840000000000003,                     !- Feature Value 28
  EPWDesignCoolingHumidityRatio,          !- Feature Name 29
  Double,                                 !- Feature Data Type 29
  0.014854977357078568,                   !- Feature Value 29
  EPWDesignCoolingWindspeed,              !- Feature Name 30
  Double,                                 !- Feature Data Type 30
  3.5,                                    !- Feature Value 30
  EPWDesignDailyTemperatureRange,         !- Feature Name 31
  Double,                                 !- Feature Data Type 31
  18.359999999999999,                     !- Feature Value 31
  EPWDesignDehumidDrybulb,                !- Feature Name 32
  Double,                                 !- Feature Data Type 32
  80.780000000000001,                     !- Feature Value 32
  EPWDesignDehumidHumidityRatio,          !- Feature Name 33
  Double,                                 !- Feature Data Type 33
  0.018020532174813565,                   !- Feature Value 33
  EPWDesignCoolingDirectNormal,           !- Feature Name 34
  Double,                                 !- Feature Data Type 34
  949,                                    !- Feature Value 34
  EPWDesignCoolingDiffuseHorizontal,      !- Feature Name 35
  Double,                                 !- Feature Data Type 35
  108;                                    !- Feature Value 35

OS:ClimateZones,
  {be189b75-99e1-463c-bc38-a9fea9df4400}, !- Handle
  Building America,                       !- Climate Zone Institution Name 1
  ,                                       !- Climate Zone Document Name 1
  0,                                      !- Climate Zone Document Year 1
  Mixed-Humid;                            !- Climate Zone Value 1

OS:Site:WaterMainsTemperature,
  {1aeb73b7-01b8-42bf-82db-90d3a4d76b13}, !- Handle
  Correlation,                            !- Calculation Method
  ,                                       !- Temperature Schedule Name
  15.4004680365297,                       !- Annual Average Outdoor Air Temperature {C}
  24.3772849462365;                       !- Maximum Difference In Monthly Average Outdoor Air Temperatures {deltaC}

OS:RunPeriodControl:DaylightSavingTime,
  {8f889053-8e31-4c12-a789-7ef1e2a7da71}, !- Handle
  3/10,                                   !- Start Date
  11/3;                                   !- End Date

OS:Site:GroundTemperature:Deep,
  {d71454fe-fee9-47c3-9052-02bf603d1420}, !- Handle
  15.4004680365297,                       !- January Deep Ground Temperature {C}
  15.4004680365297,                       !- February Deep Ground Temperature {C}
  15.4004680365297,                       !- March Deep Ground Temperature {C}
  15.4004680365297,                       !- April Deep Ground Temperature {C}
  15.4004680365297,                       !- May Deep Ground Temperature {C}
  15.4004680365297,                       !- June Deep Ground Temperature {C}
  15.4004680365297,                       !- July Deep Ground Temperature {C}
  15.4004680365297,                       !- August Deep Ground Temperature {C}
  15.4004680365297,                       !- September Deep Ground Temperature {C}
  15.4004680365297,                       !- October Deep Ground Temperature {C}
  15.4004680365297,                       !- November Deep Ground Temperature {C}
  15.4004680365297;                       !- December Deep Ground Temperature {C}

OS:ThermalZone,
  {b06999b2-c4d9-4011-9792-a8fe3d49cfc0}, !- Handle
  living zone,                            !- Name
  ,                                       !- Multiplier
  ,                                       !- Ceiling Height {m}
  ,                                       !- Volume {m3}
  ,                                       !- Floor Area {m2}
  ,                                       !- Zone Inside Convection Algorithm
  ,                                       !- Zone Outside Convection Algorithm
  ,                                       !- Zone Conditioning Equipment List Name
  {ed75aed7-afc2-4a49-af12-0a0526f09f4d}, !- Zone Air Inlet Port List
  {838bb86b-870f-471b-be29-68d1fdcc8fcf}, !- Zone Air Exhaust Port List
  {e26ac6a2-ae98-4ee1-9e6c-33339a785ef4}, !- Zone Air Node Name
  {6cc2fff6-a534-470f-a625-e8e8fee553ac}, !- Zone Return Air Port List
  ,                                       !- Primary Daylighting Control Name
  ,                                       !- Fraction of Zone Controlled by Primary Daylighting Control
  ,                                       !- Secondary Daylighting Control Name
  ,                                       !- Fraction of Zone Controlled by Secondary Daylighting Control
  ,                                       !- Illuminance Map Name
  ,                                       !- Group Rendering Name
  {8afd6540-107c-4488-a9a2-5ce45ddaa5e6}, !- Thermostat Name
  No;                                     !- Use Ideal Air Loads

OS:Node,
  {29d2dd0a-f8af-4de7-8417-063370128ede}, !- Handle
  Node 1,                                 !- Name
  {e26ac6a2-ae98-4ee1-9e6c-33339a785ef4}, !- Inlet Port
  ;                                       !- Outlet Port

OS:Connection,
  {e26ac6a2-ae98-4ee1-9e6c-33339a785ef4}, !- Handle
  {b06999b2-c4d9-4011-9792-a8fe3d49cfc0}, !- Source Object
  11,                                     !- Outlet Port
  {29d2dd0a-f8af-4de7-8417-063370128ede}, !- Target Object
  2;                                      !- Inlet Port

OS:PortList,
  {ed75aed7-afc2-4a49-af12-0a0526f09f4d}, !- Handle
  {b06999b2-c4d9-4011-9792-a8fe3d49cfc0}, !- HVAC Component
  {0ccce5d5-b44a-4111-b542-29ede92a965b}; !- Port 1

OS:PortList,
  {838bb86b-870f-471b-be29-68d1fdcc8fcf}, !- Handle
  {b06999b2-c4d9-4011-9792-a8fe3d49cfc0}; !- HVAC Component

OS:PortList,
  {6cc2fff6-a534-470f-a625-e8e8fee553ac}, !- Handle
  {b06999b2-c4d9-4011-9792-a8fe3d49cfc0}, !- HVAC Component
  {3dfd815d-0ee4-47d6-871b-e1699e6d6a61}; !- Port 1

OS:Sizing:Zone,
  {3e5efb04-81c5-451a-9df1-390abc73deb9}, !- Handle
  {b06999b2-c4d9-4011-9792-a8fe3d49cfc0}, !- Zone or ZoneList Name
  SupplyAirTemperature,                   !- Zone Cooling Design Supply Air Temperature Input Method
  14,                                     !- Zone Cooling Design Supply Air Temperature {C}
  11.11,                                  !- Zone Cooling Design Supply Air Temperature Difference {deltaC}
  SupplyAirTemperature,                   !- Zone Heating Design Supply Air Temperature Input Method
  40,                                     !- Zone Heating Design Supply Air Temperature {C}
  11.11,                                  !- Zone Heating Design Supply Air Temperature Difference {deltaC}
  0.0085,                                 !- Zone Cooling Design Supply Air Humidity Ratio {kg-H2O/kg-air}
  0.008,                                  !- Zone Heating Design Supply Air Humidity Ratio {kg-H2O/kg-air}
  ,                                       !- Zone Heating Sizing Factor
  ,                                       !- Zone Cooling Sizing Factor
  DesignDay,                              !- Cooling Design Air Flow Method
  ,                                       !- Cooling Design Air Flow Rate {m3/s}
  ,                                       !- Cooling Minimum Air Flow per Zone Floor Area {m3/s-m2}
  ,                                       !- Cooling Minimum Air Flow {m3/s}
  ,                                       !- Cooling Minimum Air Flow Fraction
  DesignDay,                              !- Heating Design Air Flow Method
  ,                                       !- Heating Design Air Flow Rate {m3/s}
  ,                                       !- Heating Maximum Air Flow per Zone Floor Area {m3/s-m2}
  ,                                       !- Heating Maximum Air Flow {m3/s}
  ,                                       !- Heating Maximum Air Flow Fraction
  No,                                     !- Account for Dedicated Outdoor Air System
  NeutralSupplyAir,                       !- Dedicated Outdoor Air System Control Strategy
  autosize,                               !- Dedicated Outdoor Air Low Setpoint Temperature for Design {C}
  autosize;                               !- Dedicated Outdoor Air High Setpoint Temperature for Design {C}

OS:ZoneHVAC:EquipmentList,
  {f98c87cb-2f80-4c46-a0eb-723197d049ab}, !- Handle
  Zone HVAC Equipment List 1,             !- Name
  {b06999b2-c4d9-4011-9792-a8fe3d49cfc0}, !- Thermal Zone
  SequentialLoad,                         !- Load Distribution Scheme
  {ce8994c1-47bc-4413-a63a-88d115d771e5}, !- Zone Equipment 1
  2,                                      !- Zone Equipment Cooling Sequence 1
  2,                                      !- Zone Equipment Heating or No-Load Sequence 1
  ,                                       !- Zone Equipment Sequential Cooling Fraction Schedule Name 1
  ,                                       !- Zone Equipment Sequential Heating Fraction Schedule Name 1
  {74d570b4-2d81-44e0-8094-43723e3a92bd}, !- Zone Equipment 2
  1,                                      !- Zone Equipment Cooling Sequence 2
  1,                                      !- Zone Equipment Heating or No-Load Sequence 2
  ,                                       !- Zone Equipment Sequential Cooling Fraction Schedule Name 2
  ;                                       !- Zone Equipment Sequential Heating Fraction Schedule Name 2

OS:ThermalZone,
  {ee389b78-4962-4be1-b9a5-72d822caa508}, !- Handle
  garage zone,                            !- Name
  ,                                       !- Multiplier
  ,                                       !- Ceiling Height {m}
  ,                                       !- Volume {m3}
  ,                                       !- Floor Area {m2}
  ,                                       !- Zone Inside Convection Algorithm
  ,                                       !- Zone Outside Convection Algorithm
  ,                                       !- Zone Conditioning Equipment List Name
  {5c3df5ec-3a1d-4c31-97be-fe329650f11b}, !- Zone Air Inlet Port List
  {35718a69-a60f-4907-8422-9eaf70ba47c5}, !- Zone Air Exhaust Port List
  {913b538a-a3f1-42c4-8dc6-a67dbbc2b7f2}, !- Zone Air Node Name
  {f876ca2e-b8e6-471c-addd-5f693ac0109e}, !- Zone Return Air Port List
  ,                                       !- Primary Daylighting Control Name
  ,                                       !- Fraction of Zone Controlled by Primary Daylighting Control
  ,                                       !- Secondary Daylighting Control Name
  ,                                       !- Fraction of Zone Controlled by Secondary Daylighting Control
  ,                                       !- Illuminance Map Name
  ,                                       !- Group Rendering Name
  ,                                       !- Thermostat Name
  No;                                     !- Use Ideal Air Loads

OS:Node,
  {dedde29c-f0a8-4344-b3df-ee7d8ec05b04}, !- Handle
  Node 2,                                 !- Name
  {913b538a-a3f1-42c4-8dc6-a67dbbc2b7f2}, !- Inlet Port
  ;                                       !- Outlet Port

OS:Connection,
  {913b538a-a3f1-42c4-8dc6-a67dbbc2b7f2}, !- Handle
  {ee389b78-4962-4be1-b9a5-72d822caa508}, !- Source Object
  11,                                     !- Outlet Port
  {dedde29c-f0a8-4344-b3df-ee7d8ec05b04}, !- Target Object
  2;                                      !- Inlet Port

OS:PortList,
  {5c3df5ec-3a1d-4c31-97be-fe329650f11b}, !- Handle
  {ee389b78-4962-4be1-b9a5-72d822caa508}; !- HVAC Component

OS:PortList,
  {35718a69-a60f-4907-8422-9eaf70ba47c5}, !- Handle
  {ee389b78-4962-4be1-b9a5-72d822caa508}; !- HVAC Component

OS:PortList,
  {f876ca2e-b8e6-471c-addd-5f693ac0109e}, !- Handle
  {ee389b78-4962-4be1-b9a5-72d822caa508}; !- HVAC Component

OS:Sizing:Zone,
  {2ec7dba9-8a37-4900-ba84-08e33b1aa954}, !- Handle
  {ee389b78-4962-4be1-b9a5-72d822caa508}, !- Zone or ZoneList Name
  SupplyAirTemperature,                   !- Zone Cooling Design Supply Air Temperature Input Method
  14,                                     !- Zone Cooling Design Supply Air Temperature {C}
  11.11,                                  !- Zone Cooling Design Supply Air Temperature Difference {deltaC}
  SupplyAirTemperature,                   !- Zone Heating Design Supply Air Temperature Input Method
  40,                                     !- Zone Heating Design Supply Air Temperature {C}
  11.11,                                  !- Zone Heating Design Supply Air Temperature Difference {deltaC}
  0.0085,                                 !- Zone Cooling Design Supply Air Humidity Ratio {kg-H2O/kg-air}
  0.008,                                  !- Zone Heating Design Supply Air Humidity Ratio {kg-H2O/kg-air}
  ,                                       !- Zone Heating Sizing Factor
  ,                                       !- Zone Cooling Sizing Factor
  DesignDay,                              !- Cooling Design Air Flow Method
  ,                                       !- Cooling Design Air Flow Rate {m3/s}
  ,                                       !- Cooling Minimum Air Flow per Zone Floor Area {m3/s-m2}
  ,                                       !- Cooling Minimum Air Flow {m3/s}
  ,                                       !- Cooling Minimum Air Flow Fraction
  DesignDay,                              !- Heating Design Air Flow Method
  ,                                       !- Heating Design Air Flow Rate {m3/s}
  ,                                       !- Heating Maximum Air Flow per Zone Floor Area {m3/s-m2}
  ,                                       !- Heating Maximum Air Flow {m3/s}
  ,                                       !- Heating Maximum Air Flow Fraction
  No,                                     !- Account for Dedicated Outdoor Air System
  NeutralSupplyAir,                       !- Dedicated Outdoor Air System Control Strategy
  autosize,                               !- Dedicated Outdoor Air Low Setpoint Temperature for Design {C}
  autosize;                               !- Dedicated Outdoor Air High Setpoint Temperature for Design {C}

OS:ZoneHVAC:EquipmentList,
  {a99ba224-bc97-4dda-b232-dbd23d65ee09}, !- Handle
  Zone HVAC Equipment List 2,             !- Name
  {ee389b78-4962-4be1-b9a5-72d822caa508}; !- Thermal Zone

OS:Space,
  {f52c090a-cdd6-4253-be56-8f59253bd591}, !- Handle
  garage space,                           !- Name
  {482aad0f-c9ff-4fa9-854f-8ed1ef323636}, !- Space Type Name
  ,                                       !- Default Construction Set Name
  ,                                       !- Default Schedule Set Name
  -0,                                     !- Direction of Relative North {deg}
  0,                                      !- X Origin {m}
  0,                                      !- Y Origin {m}
  0,                                      !- Z Origin {m}
  ,                                       !- Building Story Name
  {ee389b78-4962-4be1-b9a5-72d822caa508}; !- Thermal Zone Name

OS:Surface,
  {88d64843-b87e-4275-809d-8a4e5d74bcfe}, !- Handle
  Surface 1,                              !- Name
  Floor,                                  !- Surface Type
  {c6946e00-d8d4-4870-aca1-e7eaafd68138}, !- Construction Name
  {f52c090a-cdd6-4253-be56-8f59253bd591}, !- Space Name
  Foundation,                             !- Outside Boundary Condition
  {114655e8-bb70-4952-bb99-2416428af5f7}, !- Outside Boundary Condition Object
  NoSun,                                  !- Sun Exposure
  NoWind,                                 !- Wind Exposure
  ,                                       !- View Factor to Ground
  ,                                       !- Number of Vertices
  10.8719378621266, -3.6576, 0,           !- X,Y,Z Vertex 1 {m}
  10.8719378621266, 3.6576, 0,            !- X,Y,Z Vertex 2 {m}
  18.1871378621266, 3.6576, 0,            !- X,Y,Z Vertex 3 {m}
  18.1871378621266, -3.6576, 0;           !- X,Y,Z Vertex 4 {m}

OS:Surface,
  {60a71731-54b1-4b15-855a-e3ebcbd32c6b}, !- Handle
  Surface 2,                              !- Name
  Wall,                                   !- Surface Type