
OS:Version,
  {5873c5e8-d5e3-4a6b-976b-e767e337541d}, !- Handle
  3.3.0;                                  !- Version Identifier

OS:Building,
  {46523c0e-8b52-49cf-afb3-a55c676a5f2d}, !- Handle
  Building 1,                             !- Name
  ,                                       !- Building Sector Type
  45,                                     !- North Axis {deg}
  ,                                       !- Nominal Floor to Floor Height {m}
  ,                                       !- Space Type Name
  ,                                       !- Default Construction Set Name
  ,                                       !- Default Schedule Set Name
  2,                                      !- Standards Number of Stories
  1,                                      !- Standards Number of Above Ground Stories
  ,                                       !- Standards Template
  singlefamilydetached,                   !- Standards Building Type
  1;                                      !- Standards Number of Living Units

OS:Facility,
  {f388f06e-5f46-401a-9260-6c9d14152de9}; !- Handle

OS:Site,
  {ccdb75bf-abf0-42c9-bc6d-6aa1a8f56f92}, !- Handle
  Denver-Aurora-Buckley AFB,              !- Name
  39.72,                                  !- Latitude {deg}
  -104.75,                                !- Longitude {deg}
  -7,                                     !- Time Zone {hr}
  1726,                                   !- Elevation {m}
  Suburbs;                                !- Terrain

OS:SimulationControl,
  {b3ff94f1-6020-4e25-83a0-7910386fec9e}, !- Handle
  ,                                       !- Do Zone Sizing Calculation
  ,                                       !- Do System Sizing Calculation
  ,                                       !- Do Plant Sizing Calculation
  No;                                     !- Run Simulation for Sizing Periods

OS:Sizing:Parameters,
  {e74e34a2-9998-4215-a176-8d38122fa6ae}, !- Handle
  1.25,                                   !- Heating Sizing Factor
  1.15;                                   !- Cooling Sizing Factor

OS:Timestep,
  {4e393f3a-9264-4b5c-9012-fdc086af2fc1}, !- Handle
  4;                                      !- Number of Timesteps per Hour

OS:ShadowCalculation,
  {34860cce-ccd5-4730-a7b1-0a6687aa93c9}, !- Handle
  PolygonClipping,                        !- Shading Calculation Method
  ,                                       !- Shading Calculation Update Frequency Method
  20,                                     !- Shading Calculation Update Frequency
  200,                                    !- Maximum Figures in Shadow Overlap Calculations
  ,                                       !- Polygon Clipping Algorithm
  512,                                    !- Pixel Counting Resolution
  DetailedSkyDiffuseModeling,             !- Sky Diffuse Modeling Algorithm
  No,                                     !- Output External Shading Calculation Results
  No,                                     !- Disable Self-Shading Within Shading Zone Groups
  No;                                     !- Disable Self-Shading From Shading Zone Groups to Other Zones

OS:HeatBalanceAlgorithm,
  {78bba49f-4c95-4957-b614-adc1680f7834}, !- Handle
  ConductionTransferFunction,             !- Algorithm
  200;                                    !- Surface Temperature Upper Limit {C}

OS:RunPeriod,
  {821c6329-81dc-4add-83f0-38f3fb079950}, !- Handle
  Run Period 1,                           !- Name
  1,                                      !- Begin Month
  1,                                      !- Begin Day of Month
  12,                                     !- End Month
  31,                                     !- End Day of Month
  ,                                       !- Use Weather File Holidays and Special Days
  ,                                       !- Use Weather File Daylight Saving Period
  ,                                       !- Apply Weekend Holiday Rule
  ,                                       !- Use Weather File Rain Indicators
  ,                                       !- Use Weather File Snow Indicators
  ;                                       !- Number of Times Runperiod to be Repeated

OS:LifeCycleCost:Parameters,
  {6f62e89f-e0a3-44d6-99cb-e4ea125ea563}, !- Handle
  ,                                       !- Analysis Type
  ,                                       !- Discounting Convention
  ,                                       !- Inflation Approach
  ,                                       !- Real Discount Rate
  ,                                       !- Nominal Discount Rate
  ,                                       !- Inflation
  ,                                       !- Base Date Month
  ,                                       !- Base Date Year
  ,                                       !- Service Date Month
  ,                                       !- Service Date Year
  ;                                       !- Length of Study Period in Years

OS:SurfaceConvectionAlgorithm:Outside,
  {4dd86cc9-c5ea-472d-9391-2d75621eefc3}, !- Handle
  DOE-2;                                  !- Algorithm

OS:SurfaceConvectionAlgorithm:Inside,
  {9dd55d0b-05b3-47ac-a5dd-14ae983dc016}, !- Handle
  TARP;                                   !- Algorithm

OS:ZoneCapacitanceMultiplier:ResearchSpecial,
  {369c6e2e-5e28-4a4a-89a6-120289f36493}, !- Handle
  ,                                       !- Temperature Capacity Multiplier
  15,                                     !- Humidity Capacity Multiplier
  ;                                       !- Carbon Dioxide Capacity Multiplier

OS:YearDescription,
  {1b434efd-580c-4fc8-9c50-de9860a0160c}, !- Handle
  ,                                       !- Calendar Year
  Sunday,                                 !- Day of Week for Start Day
  ;                                       !- Is Leap Year

OS:AdditionalProperties,
  {7ef31e51-1261-452e-95d0-51489818e768}, !- Handle
  {46523c0e-8b52-49cf-afb3-a55c676a5f2d}, !- Object Name
  Building ID,                            !- Feature Name 1
  Integer,                                !- Feature Data Type 1
  205657,                                 !- Feature Value 1
  num_occupants,                          !- Feature Name 2
  Integer,                                !- Feature Data Type 2
  1,                                      !- Feature Value 2
  Schedules Path,                         !- Feature Name 3
  String,                                 !- Feature Data Type 3
  /var/simdata/openstudio/run/schedules.csv, !- Feature Value 3
  Total Units Modeled,                    !- Feature Name 4
  Integer,                                !- Feature Data Type 4
  1,                                      !- Feature Value 4
  has_water_heater_flue,                  !- Feature Name 5
  Boolean,                                !- Feature Data Type 5
  true,                                   !- Feature Value 5
  has_hvac_flue,                          !- Feature Name 6
  Boolean,                                !- Feature Data Type 6
  true,                                   !- Feature Value 6
  has_fireplace_chimney,                  !- Feature Name 7
  Boolean,                                !- Feature Data Type 7
  false;                                  !- Feature Value 7

OS:ClimateZones,
  {20de4d4e-f16e-4f64-9ba3-545860f43c15}, !- Handle
  Building America,                       !- Climate Zone Institution Name 1
  ,                                       !- Climate Zone Document Name 1
  0,                                      !- Climate Zone Document Year 1
  Cold,                                   !- Climate Zone Value 1
  ASHRAE,                                 !- Climate Zone Institution Name 2
  ANSI/ASHRAE Standard 169,               !- Climate Zone Document Name 2
  2006,                                   !- Climate Zone Document Year 2
  3A,                                     !- Climate Zone Value 2
  CEC,                                    !- Climate Zone Institution Name 3
  California Climate Zone Descriptions,   !- Climate Zone Document Name 3
  1995,                                   !- Climate Zone Document Year 3
  ;                                       !- Climate Zone Value 3

OS:Site:WaterMainsTemperature,
  {1b6b25f0-5dfd-4f16-bc25-61f4f9f2d801}, !- Handle
  Correlation,                            !- Calculation Method
  ,                                       !- Temperature Schedule Name
  6.28566210045661,                       !- Annual Average Outdoor Air Temperature {C}
  35.5063172043011;                       !- Maximum Difference In Monthly Average Outdoor Air Temperatures {deltaC}

OS:RunPeriodControl:DaylightSavingTime,
  {e4c48eab-4fee-4a03-838f-5991682e2adc}, !- Handle
  3/10,                                   !- Start Date
  11/3;                                   !- End Date

OS:Site:GroundTemperature:Deep,
  {1ce733c4-c436-4a95-b49f-960ee5582a8d}, !- Handle
  6.28566210045661,                       !- January Deep Ground Temperature {C}
  6.28566210045661,                       !- February Deep Ground Temperature {C}
  6.28566210045661,                       !- March Deep Ground Temperature {C}
  6.28566210045661,                       !- April Deep Ground Temperature {C}
  6.28566210045661,                       !- May Deep Ground Temperature {C}
  6.28566210045661,                       !- June Deep Ground Temperature {C}
  6.28566210045661,                       !- July Deep Ground Temperature {C}
  6.28566210045661,                       !- August Deep Ground Temperature {C}
  6.28566210045661,                       !- September Deep Ground Temperature {C}
  6.28566210045661,                       !- October Deep Ground Temperature {C}
  6.28566210045661,                       !- November Deep Ground Temperature {C}
  6.28566210045661;                       !- December Deep Ground Temperature {C}

OS:ThermalZone,
  {d88a20c6-c3ce-4431-a28f-9efbfd4846a5}, !- Handle
  living zone,                            !- Name
  ,                                       !- Multiplier
  ,                                       !- Ceiling Height {m}
  ,                                       !- Volume {m3}
  ,                                       !- Floor Area {m2}
  ,                                       !- Zone Inside Convection Algorithm
  ,                                       !- Zone Outside Convection Algorithm
  ,                                       !- Zone Conditioning Equipment List Name
  {e329b8f6-2379-42d1-b466-9bd4c73245c6}, !- Zone Air Inlet Port List
  {24e4375d-7f3d-449f-a78f-c33da8626a4a}, !- Zone Air Exhaust Port List
  {33067494-58f1-4a9f-b92c-f53e493a2c22}, !- Zone Air Node Name
  {480f733a-e8ab-4a4c-a812-cbd11669cf1c}, !- Zone Return Air Port List
  ,                                       !- Primary Daylighting Control Name
  ,                                       !- Fraction of Zone Controlled by Primary Daylighting Control
  ,                                       !- Secondary Daylighting Control Name
  ,                                       !- Fraction of Zone Controlled by Secondary Daylighting Control
  ,                                       !- Illuminance Map Name
  ,                                       !- Group Rendering Name
  {0939b392-b30e-4364-9d9c-394671a46ed4}, !- Thermostat Name
  No;                                     !- Use Ideal Air Loads

OS:Node,
  {c4dadf00-8132-4ea3-88cf-d258277fcde7}, !- Handle
  Node 1,                                 !- Name
  {33067494-58f1-4a9f-b92c-f53e493a2c22}, !- Inlet Port
  ;                                       !- Outlet Port

OS:Connection,
  {33067494-58f1-4a9f-b92c-f53e493a2c22}, !- Handle
  {d88a20c6-c3ce-4431-a28f-9efbfd4846a5}, !- Source Object
  11,                                     !- Outlet Port
  {c4dadf00-8132-4ea3-88cf-d258277fcde7}, !- Target Object
  2;                                      !- Inlet Port

OS:PortList,
  {e329b8f6-2379-42d1-b466-9bd4c73245c6}, !- Handle
  {d88a20c6-c3ce-4431-a28f-9efbfd4846a5}, !- HVAC Component
  {e5e89c21-7cbc-41b4-9ba4-24f5613ac0a9}; !- Port 1

OS:PortList,
  {24e4375d-7f3d-449f-a78f-c33da8626a4a}, !- Handle
  {d88a20c6-c3ce-4431-a28f-9efbfd4846a5}; !- HVAC Component

OS:PortList,
  {480f733a-e8ab-4a4c-a812-cbd11669cf1c}, !- Handle
  {d88a20c6-c3ce-4431-a28f-9efbfd4846a5}, !- HVAC Component
  {2ad6fe8c-60b1-4643-8081-415232055abc}; !- Port 1

OS:Sizing:Zone,
  {3b674389-30ec-4b52-941e-41febef60de1}, !- Handle
  {d88a20c6-c3ce-4431-a28f-9efbfd4846a5}, !- Zone or ZoneList Name
  SupplyAirTemperature,                   !- Zone Cooling Design Supply Air Temperature Input Method
  14,                                     !- Zone Cooling Design Supply Air Temperature {C}
  11.11,                                  !- Zone Cooling Design Supply Air Temperature Difference {deltaC}
  SupplyAirTemperature,                   !- Zone Heating Design Supply Air Temperature Input Method
  40,                                     !- Zone Heating Design Supply Air Temperature {C}
  11.11,                                  !- Zone Heating Design Supply Air Temperature Difference {deltaC}
  0.0085,                                 !- Zone Cooling Design Supply Air Humidity Ratio {kg-H2O/kg-air}
  0.008,                                  !- Zone Heating Design Supply Air Humidity Ratio {kg-H2O/kg-air}
  ,                                       !- Zone Heating Sizing Factor
  ,                                       !- Zone Cooling Sizing Factor
  DesignDay,                              !- Cooling Design Air Flow Method
  ,                                       !- Cooling Design Air Flow Rate {m3/s}
  ,                                       !- Cooling Minimum Air Flow per Zone Floor Area {m3/s-m2}
  ,                                       !- Cooling Minimum Air Flow {m3/s}
  ,                                       !- Cooling Minimum Air Flow Fraction
  DesignDay,                              !- Heating Design Air Flow Method
  ,                                       !- Heating Design Air Flow Rate {m3/s}
  ,                                       !- Heating Maximum Air Flow per Zone Floor Area {m3/s-m2}
  ,                                       !- Heating Maximum Air Flow {m3/s}
  ,                                       !- Heating Maximum Air Flow Fraction
  No,                                     !- Account for Dedicated Outdoor Air System
  NeutralSupplyAir,                       !- Dedicated Outdoor Air System Control Strategy
  autosize,                               !- Dedicated Outdoor Air Low Setpoint Temperature for Design {C}
  autosize;                               !- Dedicated Outdoor Air High Setpoint Temperature for Design {C}

OS:ZoneHVAC:EquipmentList,
  {5dad2f56-5ce9-495c-979b-851663a9e100}, !- Handle
  Zone HVAC Equipment List 1,             !- Name
  {d88a20c6-c3ce-4431-a28f-9efbfd4846a5}, !- Thermal Zone
  SequentialLoad,                         !- Load Distribution Scheme
  {a3411283-8f8a-48d7-9040-f488b7c8c5c3}, !- Zone Equipment 1
  1,                                      !- Zone Equipment Cooling Sequence 1
  1,                                      !- Zone Equipment Heating or No-Load Sequence 1
  ,                                       !- Zone Equipment Sequential Cooling Fraction Schedule Name 1
  ;                                       !- Zone Equipment Sequential Heating Fraction Schedule Name 1

OS:Space,
  {88369a98-b580-47e7-b38c-40ded2543d1d}, !- Handle
  living space,                           !- Name
  {05b7f367-4296-4622-8680-827b00428cf0}, !- Space Type Name
  ,                                       !- Default Construction Set Name
  ,                                       !- Default Schedule Set Name
  -0,                                     !- Direction of Relative North {deg}
  0,                                      !- X Origin {m}
  0,                                      !- Y Origin {m}
  0,                                      !- Z Origin {m}
  ,                                       !- Building Story Name
  {d88a20c6-c3ce-4431-a28f-9efbfd4846a5}, !- Thermal Zone Name
  ,                                       !- Part of Total Floor Area
  ,                                       !- Design Specification Outdoor Air Object Name
  {992ec805-4fa3-45a1-a7cd-7d47965813d7}; !- Building Unit Name

OS:Surface,
  {a0b76f85-4581-4628-b79e-8b3ceadb8821}, !- Handle
  Surface 1,                              !- Name
  Floor,                                  !- Surface Type
  {3fb28536-7ab8-467d-98a6-4e542a3f9d2b}, !- Construction Name
  {88369a98-b580-47e7-b38c-40ded2543d1d}, !- Space Name
  Surface,                                !- Outside Boundary Condition
  {08904ed4-c26f-4406-b2cb-459510c17931}, !- Outside Boundary Condition Object
  NoSun,                                  !- Sun Exposure
  NoWind,                                 !- Wind Exposure
  ,                                       !- View Factor to Ground
  ,                                       !- Number of Vertices
  0, 0, 0,                                !- X,Y,Z Vertex 1 {m}
  0, 6.604, 0,                            !- X,Y,Z Vertex 2 {m}
  11.8872, 6.604, 0,                      !- X,Y,Z Vertex 3 {m}
  11.8872, 0, 0;                          !- X,Y,Z Vertex 4 {m}

OS:Surface,
  {3c43cb98-4563-4686-9765-d5c88d41801f}, !- Handle
  Surface 2,                              !- Name
  Wall,                                   !- Surface Type
  {dec7e83e-59da-4f87-a463-44a14c7597cd}, !- Construction Name
  {88369a98-b580-47e7-b38c-40ded2543d1d}, !- Space Name
  Outdoors,                               !- Outside Boundary Condition
  ,                                       !- Outside Boundary Condition Object
  SunExposed,                             !- Sun Exposure
  WindExposed,                            !- Wind Exposure
  ,                                       !- View Factor to Ground
  ,                                       !- Number of Vertices
  0, 6.604, 2.4384,                       !- X,Y,Z Vertex 1 {m}
  0, 6.604, 0,                            !- X,Y,Z Vertex 2 {m}
  0, 0, 0,                                !- X,Y,Z Vertex 3 {m}
  0, 0, 2.4384;                           !- X,Y,Z Vertex 4 {m}

OS:Surface,
  {65a19dd3-b43d-44d8-8643-e148219909f9}, !- Handle
  Surface 3,                              !- Name
  Wall,                                   !- Surface Type
  {dec7e83e-59da-4f87-a463-44a14c7597cd}, !- Construction Name
  {88369a98-b580-47e7-b38c-40ded2543d1d}, !- Space Name
  Outdoors,                               !- Outside Boundary Condition
  ,                                       !- Outside Boundary Condition Object
  SunExposed,                             !- Sun Exposure
  WindExposed,                            !- Wind Exposure
  ,                                       !- View Factor to Ground
  ,                                       !- Number of Vertices
  11.8872, 6.604, 2.4384,                 !- X,Y,Z Vertex 1 {m}
  11.8872, 6.604, 0,                      !- X,Y,Z Vertex 2 {m}
  0, 6.604, 0,                            !- X,Y,Z Vertex 3 {m}
  0, 6.604, 2.4384;                       !- X,Y,Z Vertex 4 {m}

OS:Surface,
  {64f21814-896e-4267-acd1-20e897240b86}, !- Handle
  Surface 4,                              !- Name
  Wall,                                   !- Surface Type
  {dec7e83e-59da-4f87-a463-44a14c7597cd}, !- Construction Name
  {88369a98-b580-47e7-b38c-40ded2543d1d}, !- Space Name
  Outdoors,                               !- Outside Boundary Condition
  ,                                       !- Outside Boundary Condition Object
  SunExposed,                             !- Sun Exposure
  WindExposed,                            !- Wind Exposure
  ,                                       !- View Factor to Ground
  ,                                       !- Number of Vertices
  11.8872, 0, 2.4384,                     !- X,Y,Z Vertex 1 {m}
  11.8872, 0, 0,                          !- X,Y,Z Vertex 2 {m}
  11.8872, 6.604, 0,                      !- X,Y,Z Vertex 3 {m}
  11.8872, 6.604, 2.4384;                 !- X,Y,Z Vertex 4 {m}

OS:Surface,
  {c13e0e50-6b23-478f-b493-f02b81c6cd1d}, !- Handle
  Surface 5,                              !- Name
  Wall,                                   !- Surface Type
  {dec7e83e-59da-4f87-a463-44a14c7597cd}, !- Construction Name
  {88369a98-b580-47e7-b38c-40ded2543d1d}, !- Space Name
  Outdoors,                               !- Outside Boundary Condition
  ,                                       !- Outside Boundary Condition Object
  SunExposed,                             !- Sun Exposure
  WindExposed,                            !- Wind Exposure
  ,                                       !- View Factor to Ground
  ,                                       !- Number of Vertices
  1.04865714285714, 0, 5.70100433527898e-07, !- X,Y,Z Vertex 1 {m}
  11.8872, 0, 0,                          !- X,Y,Z Vertex 2 {m}
  11.8872, 0, 2.4384,                     !- X,Y,Z Vertex 3 {m}
  1.04865714285714, 0, 2.43840061861962;  !- X,Y,Z Vertex 4 {m}

OS:Surface,
  {60420594-1f37-4c5d-bba6-79060406345f}, !- Handle
  Surface 6,                              !- Name
  RoofCeiling,                            !- Surface Type
  {a104e117-ef53-4c7a-b86d-00d5f21f9d90}, !- Construction Name
  {88369a98-b580-47e7-b38c-40ded2543d1d}, !- Space Name
  Surface,                                !- Outside Boundary Condition
  {0880ec71-5e35-4531-971c-8cedfcef973d}, !- Outside Boundary Condition Object
  NoSun,                                  !- Sun Exposure
  NoWind,                                 !- Wind Exposure
  ,                                       !- View Factor to Ground
  ,                                       !- Number of Vertices
  11.8872, 0, 2.4384,                     !- X,Y,Z Vertex 1 {m}
  11.8872, 6.604, 2.4384,                 !- X,Y,Z Vertex 2 {m}
  0, 6.604, 2.4384,                       !- X,Y,Z Vertex 3 {m}
  0, 0, 2.4384;                           !- X,Y,Z Vertex 4 {m}

OS:SpaceType,
  {05b7f367-4296-4622-8680-827b00428cf0}, !- Handle
  Space Type 1,                           !- Name
  ,                                       !- Default Construction Set Name
  ,                                       !- Default Schedule Set Name
  ,                                       !- Group Rendering Name
  ,                                       !- Design Specification Outdoor Air Object Name
  ,                                       !- Standards Template
  ,                                       !- Standards Building Type
  living;                                 !- Standards Space Type

OS:Surface,
  {0880ec71-5e35-4531-971c-8cedfcef973d}, !- Handle
  Surface 7,                              !- Name
  Floor,                                  !- Surface Type
  {ffb685ba-0049-4f83-89bf-68e7da2d4fe4}, !- Construction Name
  {93eda64f-767c-44b5-94bb-351dd88677d0}, !- Space Name
  Surface,                                !- Outside Boundary Condition
  {60420594-1f37-4c5d-bba6-79060406345f}, !- Outside Boundary Condition Object
  NoSun,                                  !- Sun Exposure
  NoWind,                                 !- Wind Exposure
  ,                                       !- View Factor to Ground
  ,                                       !- Number of Vertices
  0, 6.604, 0,                            !- X,Y,Z Vertex 1 {m}
  11.8872, 6.604, 0,                      !- X,Y,Z Vertex 2 {m}
  11.8872, 0, 0,                          !- X,Y,Z Vertex 3 {m}
  0, 0, 0;                                !- X,Y,Z Vertex 4 {m}

OS:Surface,
  {a8d9c1b0-00c0-409a-9004-ad022b1c2e16}, !- Handle
  Surface 8,                              !- Name
  RoofCeiling,                            !- Surface Type
  {4a16af84-2738-4c69-829d-56bc89a1d22d}, !- Construction Name
  {93eda64f-767c-44b5-94bb-351dd88677d0}, !- Space Name
  Outdoors,                               !- Outside Boundary Condition
  ,                                       !- Outside Boundary Condition Object
  SunExposed,                             !- Sun Exposure
  WindExposed,                            !- Wind Exposure
  ,                                       !- View Factor to Ground
  ,                                       !- Number of Vertices
  11.8872, 3.302, 1.9558,                 !- X,Y,Z Vertex 1 {m}
  0, 3.302, 1.9558,                       !- X,Y,Z Vertex 2 {m}
  0, 0, 0.3048,                           !- X,Y,Z Vertex 3 {m}
  11.8872, 0, 0.3048;                     !- X,Y,Z Vertex 4 {m}

OS:Surface,
  {d9a94284-59e1-4c34-85bd-a27784f30c3d}, !- Handle
  Surface 9,                              !- Name
  RoofCeiling,                            !- Surface Type
  {4a16af84-2738-4c69-829d-56bc89a1d22d}, !- Construction Name
  {93eda64f-767c-44b5-94bb-351dd88677d0}, !- Space Name
  Outdoors,                               !- Outside Boundary Condition
  ,                                       !- Outside Boundary Condition Object
  SunExposed,                             !- Sun Exposure
  WindExposed,                            !- Wind Exposure
  ,                                       !- View Factor to Ground
  ,                                       !- Number of Vertices
  0, 3.302, 1.9558,                       !- X,Y,Z Vertex 1 {m}
  11.8872, 3.302, 1.9558,                 !- X,Y,Z Vertex 2 {m}
  11.8872, 6.604, 0.3048,                 !- X,Y,Z Vertex 3 {m}
  0, 6.604, 0.3048;                       !- X,Y,Z Vertex 4 {m}

OS:Surface,
  {6b512952-fd83-4efb-924e-5370396a73dc}, !- Handle
  Surface 10,                             !- Name
  Wall,                                   !- Surface Type
  {3cd9258b-e1b4-4bb8-8bd5-7b2a4a3cf3c2}, !- Construction Name
  {93eda64f-767c-44b5-94bb-351dd88677d0}, !- Space Name
  Outdoors,                               !- Outside Boundary Condition
  ,                                       !- Outside Boundary Condition Object
  SunExposed,                             !- Sun Exposure
  WindExposed,                            !- Wind Exposure
  ,                                       !- View Factor to Ground
  ,                                       !- Number of Vertices
  0, 3.302, 1.651,                        !- X,Y,Z Vertex 1 {m}
  0, 6.604, 0,                            !- X,Y,Z Vertex 2 {m}
  0, 0, 0;                                !- X,Y,Z Vertex 3 {m}

OS:Surface,
  {8d35ab89-f857-4006-85ba-e54c6e1e0748}, !- Handle
  Surface 11,                             !- Name
  Wall,                                   !- Surface Type
  {3cd9258b-e1b4-4bb8-8bd5-7b2a4a3cf3c2}, !- Construction Name
  {93eda64f-767c-44b5-94bb-351dd88677d0}, !- Space Name
  Outdoors,                               !- Outside Boundary Condition
  ,                                       !- Outside Boundary Condition Object
  SunExposed,                             !- Sun Exposure
  WindExposed,                            !- Wind Exposure
  ,                                       !- View Factor to Ground
  ,                                       !- Number of Vertices
  11.8872, 3.302, 1.651,                  !- X,Y,Z Vertex 1 {m}
  11.8872, 0, 0,                          !- X,Y,Z Vertex 2 {m}
  11.8872, 6.604, 0;                      !- X,Y,Z Vertex 3 {m}

OS:Space,
  {93eda64f-767c-44b5-94bb-351dd88677d0}, !- Handle
  unfinished attic space,                 !- Name
  {6b1baa31-453d-4e71-9a8f-979d6bc6763b}, !- Space Type Name
  ,                                       !- Default Construction Set Name
  ,                                       !- Default Schedule Set Name
  -0,                                     !- Direction of Relative North {deg}
  0,                                      !- X Origin {m}
  0,                                      !- Y Origin {m}
  2.4384,                                 !- Z Origin {m}
  ,                                       !- Building Story Name
  {a2e27f52-ad7e-4860-a685-fa2659177b1c}; !- Thermal Zone Name

OS:ThermalZone,
  {a2e27f52-ad7e-4860-a685-fa2659177b1c}, !- Handle
  unfinished attic zone,                  !- Name
  ,                                       !- Multiplier
  ,                                       !- Ceiling Height {m}
  ,                                       !- Volume {m3}
  ,                                       !- Floor Area {m2}
  ,                                       !- Zone Inside Convection Algorithm
  ,                                       !- Zone Outside Convection Algorithm
  ,                                       !- Zone Conditioning Equipment List Name
  {7b5e2ef2-3e10-489d-8726-cc7bd869cf18}, !- Zone Air Inlet Port List
  {f4640912-70c1-48a2-a495-2d09e495547c}, !- Zone Air Exhaust Port List
  {95848bbc-1199-4873-b587-963d577032fd}, !- Zone Air Node Name
  {a8dc12c7-82b2-4ec1-b0ee-31c9f052845f}, !- Zone Return Air Port List
  ,                                       !- Primary Daylighting Control Name
  ,                                       !- Fraction of Zone Controlled by Primary Daylighting Control
  ,                                       !- Secondary Daylighting Control Name
  ,                                       !- Fraction of Zone Controlled by Secondary Daylighting Control
  ,                                       !- Illuminance Map Name
  ,                                       !- Group Rendering Name
  ,                                       !- Thermostat Name
  No;                                     !- Use Ideal Air Loads

OS:Node,
  {3bc603c7-c3f6-4782-97ce-ca0fc2c71b44}, !- Handle
  Node 2,                                 !- Name
  {95848bbc-1199-4873-b587-963d577032fd}, !- Inlet Port
  ;                                       !- Outlet Port

OS:Connection,
  {95848bbc-1199-4873-b587-963d577032fd}, !- Handle
  {a2e27f52-ad7e-4860-a685-fa2659177b1c}, !- Source Object
  11,                                     !- Outlet Port
  {3bc603c7-c3f6-4782-97ce-ca0fc2c71b44}, !- Target Object
  2;                                      !- Inlet Port
