
OS:Version,
  {164d4c08-5870-48a9-a3e3-bad33c51da25}, !- Handle
  3.2.1;                                  !- Version Identifier

OS:Building,
  {6bb3f149-13a5-4e39-a921-6d6006d097ac}, !- Handle
  Building 1,                             !- Name
  ,                                       !- Building Sector Type
  180,                                    !- North Axis {deg}
  ,                                       !- Nominal Floor to Floor Height {m}
  ,                                       !- Space Type Name
  ,                                       !- Default Construction Set Name
  ,                                       !- Default Schedule Set Name
  2,                                      !- Standards Number of Stories
  1,                                      !- Standards Number of Above Ground Stories
  ,                                       !- Standards Template
  singlefamilydetached,                   !- Standards Building Type
  1;                                      !- Standards Number of Living Units

OS:Facility,
  {757fe35f-4dfa-4432-9449-08aca7336a9a}; !- Handle

OS:Site,
  {d2d83636-d14d-4872-acda-ecc9156a231b}, !- Handle
  Pittsburgh Allegheny Co Ap_PA_USA,      !- Name
  40.35,                                  !- Latitude {deg}
  -79.92,                                 !- Longitude {deg}
  -5,                                     !- Time Zone {hr}
  380,                                    !- Elevation {m}
  Suburbs;                                !- Terrain

OS:SimulationControl,
  {4a025e73-ecf4-444c-b3b6-acad4a3b0afc}, !- Handle
  ,                                       !- Do Zone Sizing Calculation
  ,                                       !- Do System Sizing Calculation
  ,                                       !- Do Plant Sizing Calculation
  No;                                     !- Run Simulation for Sizing Periods

OS:Sizing:Parameters,
  {8bfa113c-bebf-4b4e-9355-ead338953c4a}, !- Handle
  1.25,                                   !- Heating Sizing Factor
  1.15;                                   !- Cooling Sizing Factor

OS:Timestep,
  {8106f47e-bfa5-4953-822d-f82669a7db68}, !- Handle
  4;                                      !- Number of Timesteps per Hour

OS:ShadowCalculation,
  {b556a66e-add4-4f6c-be30-0a5f4ff95798}, !- Handle
  PolygonClipping,                        !- Shading Calculation Method
  ,                                       !- Shading Calculation Update Frequency Method
  20,                                     !- Shading Calculation Update Frequency
  200,                                    !- Maximum Figures in Shadow Overlap Calculations
  ,                                       !- Polygon Clipping Algorithm
  512,                                    !- Pixel Counting Resolution
  DetailedSkyDiffuseModeling,             !- Sky Diffuse Modeling Algorithm
  No,                                     !- Output External Shading Calculation Results
  No,                                     !- Disable Self-Shading Within Shading Zone Groups
  No;                                     !- Disable Self-Shading From Shading Zone Groups to Other Zones

OS:HeatBalanceAlgorithm,
  {c1ef1119-36e9-4fc5-b0e9-8e1a678685d7}, !- Handle
  ConductionTransferFunction,             !- Algorithm
  200;                                    !- Surface Temperature Upper Limit {C}

OS:RunPeriod,
  {f64148fd-f242-4874-aaaa-885dbfc7204d}, !- Handle
  Run Period 1,                           !- Name
  1,                                      !- Begin Month
  1,                                      !- Begin Day of Month
  12,                                     !- End Month
  31,                                     !- End Day of Month
  ,                                       !- Use Weather File Holidays and Special Days
  ,                                       !- Use Weather File Daylight Saving Period
  ,                                       !- Apply Weekend Holiday Rule
  ,                                       !- Use Weather File Rain Indicators
  ,                                       !- Use Weather File Snow Indicators
  ;                                       !- Number of Times Runperiod to be Repeated

OS:LifeCycleCost:Parameters,
  {4cf24089-a429-44b1-bcc6-5dd79f179b62}, !- Handle
  ,                                       !- Analysis Type
  ,                                       !- Discounting Convention
  ,                                       !- Inflation Approach
  ,                                       !- Real Discount Rate
  ,                                       !- Nominal Discount Rate
  ,                                       !- Inflation
  ,                                       !- Base Date Month
  ,                                       !- Base Date Year
  ,                                       !- Service Date Month
  ,                                       !- Service Date Year
  ;                                       !- Length of Study Period in Years

OS:SurfaceConvectionAlgorithm:Outside,
  {4007556f-7958-448f-9f20-21e6f933a2b3}, !- Handle
  DOE-2;                                  !- Algorithm

OS:SurfaceConvectionAlgorithm:Inside,
  {5e3d4369-2991-4e70-baad-2f33b43ef772}, !- Handle
  TARP;                                   !- Algorithm

OS:ZoneCapacitanceMultiplier:ResearchSpecial,
  {a21b3aaf-a228-4f85-bd65-bdd9f42727a1}, !- Handle
  ,                                       !- Temperature Capacity Multiplier
  15,                                     !- Humidity Capacity Multiplier
  ;                                       !- Carbon Dioxide Capacity Multiplier

OS:YearDescription,
  {d4d1949e-4397-421c-86ee-295976435c6d}, !- Handle
  2018,                                   !- Calendar Year
  ,                                       !- Day of Week for Start Day
  ;                                       !- Is Leap Year

OS:AdditionalProperties,
  {ca08864e-3c0a-41a7-9cdc-a60dbaddc809}, !- Handle
  {6bb3f149-13a5-4e39-a921-6d6006d097ac}, !- Object Name
  Building ID,                            !- Feature Name 1
  Integer,                                !- Feature Data Type 1
  279730,                                 !- Feature Value 1
  num_occupants,                          !- Feature Name 2
  Integer,                                !- Feature Data Type 2
  1,                                      !- Feature Value 2
  Schedules Path,                         !- Feature Name 3
  String,                                 !- Feature Data Type 3
  /var/simdata/openstudio/run/schedules.csv, !- Feature Value 3
  Total Units Modeled,                    !- Feature Name 4
  Integer,                                !- Feature Data Type 4
  1,                                      !- Feature Value 4
  has_water_heater_flue,                  !- Feature Name 5
  Boolean,                                !- Feature Data Type 5
  true,                                   !- Feature Value 5
  has_hvac_flue,                          !- Feature Name 6
  Boolean,                                !- Feature Data Type 6
  true,                                   !- Feature Value 6
  has_fireplace_chimney,                  !- Feature Name 7
  Boolean,                                !- Feature Data Type 7
  true;                                   !- Feature Value 7

OS:WeatherFile,
  {145a19aa-6daf-4981-a116-bce3d0e15a11}, !- Handle
  Pittsburgh Allegheny Co Ap,             !- City
  PA,                                     !- State Province Region
  USA,                                    !- Country
  TMY3,                                   !- Data Source
  725205,                                 !- WMO Number
  40.35,                                  !- Latitude {deg}
  -79.92,                                 !- Longitude {deg}
  -5,                                     !- Time Zone {hr}
  380,                                    !- Elevation {m}
  /weather/G4200030.epw,                  !- Url
  8CEA9E1B;                               !- Checksum

OS:AdditionalProperties,
  {06cc4f13-98ce-4646-8416-c86e9926f30f}, !- Handle
  {145a19aa-6daf-4981-a116-bce3d0e15a11}, !- Object Name
  EPWHeaderCity,                          !- Feature Name 1
  String,                                 !- Feature Data Type 1
  Pittsburgh Allegheny Co Ap,             !- Feature Value 1
  EPWHeaderState,                         !- Feature Name 2
  String,                                 !- Feature Data Type 2
  PA,                                     !- Feature Value 2
  EPWHeaderCountry,                       !- Feature Name 3
  String,                                 !- Feature Data Type 3
  USA,                                    !- Feature Value 3
  EPWHeaderDataSource,                    !- Feature Name 4
  String,                                 !- Feature Data Type 4
  TMY3,                                   !- Feature Value 4
  EPWHeaderStation,                       !- Feature Name 5
  String,                                 !- Feature Data Type 5
  725205,                                 !- Feature Value 5
  EPWHeaderLatitude,                      !- Feature Name 6
  Double,                                 !- Feature Data Type 6
  40.350000000000001,                     !- Feature Value 6
  EPWHeaderLongitude,                     !- Feature Name 7
  Double,                                 !- Feature Data Type 7
  -79.920000000000002,                    !- Feature Value 7
  EPWHeaderTimezone,                      !- Feature Name 8
  Double,                                 !- Feature Data Type 8
  -5,                                     !- Feature Value 8
  EPWHeaderAltitude,                      !- Feature Name 9
  Double,                                 !- Feature Data Type 9
  1246.7191601049867,                     !- Feature Value 9
  EPWHeaderLocalPressure,                 !- Feature Name 10
  Double,                                 !- Feature Data Type 10
  0.95515727605535061,                    !- Feature Value 10
  EPWHeaderRecordsPerHour,                !- Feature Name 11
  Double,                                 !- Feature Data Type 11
  1,                                      !- Feature Value 11
  EPWDataAnnualAvgDrybulb,                !- Feature Name 12
  Double,                                 !- Feature Data Type 12
  52.231280821917792,                     !- Feature Value 12
  EPWDataAnnualMinDrybulb,                !- Feature Name 13
  Double,                                 !- Feature Data Type 13
  1.9400000000000013,                     !- Feature Value 13
  EPWDataAnnualMaxDrybulb,                !- Feature Name 14
  Double,                                 !- Feature Data Type 14
  90.860000000000014,                     !- Feature Value 14
  EPWDataCDD50F,                          !- Feature Name 15
  Double,                                 !- Feature Data Type 15
  2957.3025000000002,                     !- Feature Value 15
  EPWDataCDD65F,                          !- Feature Name 16
  Double,                                 !- Feature Data Type 16
  597.93750000000034,                     !- Feature Value 16
  EPWDataHDD50F,                          !- Feature Name 17
  Double,                                 !- Feature Data Type 17
  2142.8850000000002,                     !- Feature Value 17
  EPWDataHDD65F,                          !- Feature Name 18
  Double,                                 !- Feature Data Type 18
  5258.5200000000032,                     !- Feature Value 18
  EPWDataAnnualAvgWindspeed,              !- Feature Name 19
  Double,                                 !- Feature Data Type 19
  3.8675342465749054,                     !- Feature Value 19
  EPWDataMonthlyAvgDrybulbs,              !- Feature Name 20
  String,                                 !- Feature Data Type 20
  31.079677419354837&#4431.349375&#4445.51572580645161&#4454.81100000000002&#4459.568064516129084&#4466.50325000000001&#4470.8700806451613&#4469.59532258064516&#4463.88974999999999&#4453.03217741935484&#4445.3715&#4433.86701612903226, !- Feature Value 20
  EPWDataGroundMonthlyTemps,              !- Feature Name 21
  String,                                 !- Feature Data Type 21
  45.09235150309058&#4442.04908435542973&#4441.80536860843978&#4443.24955437000182&#4449.047155439104074&#4454.81774882295457&#4459.82054488172406&#4462.98969314369316&#4463.258929695441395&#4460.68136024545419&#4455.806138423398636&#4450.212563340524696, !- Feature Value 21
  EPWDataWSF,                             !- Feature Name 22
  Double,                                 !- Feature Data Type 22
  0.51000000000000001,                    !- Feature Value 22
  EPWDataMonthlyAvgDailyHighDrybulbs,     !- Feature Name 23
  String,                                 !- Feature Data Type 23
  37.76&#4439.315714285714286&#4454.59290322580645&#4463.992000000000004&#4468.36580645161291&#4475.03200000000001&#4478.30064516129033&#4478.49806451612903&#4472.338&#4462.745161290322585&#4452.652&#4439.211612903225806, !- Feature Value 23
  EPWDataMonthlyAvgDailyLowDrybulbs,      !- Feature Name 24
  String,                                 !- Feature Data Type 24
  24.596774193548388&#4423.39857142857143&#4436.91225806451613&#4445.542&#4450.62129032258064&#4458.286&#4463.29096774193548&#4461.00903225806451&#4456.954&#4443.16580645161291&#4438.618&#4428.63806451612903, !- Feature Value 24
  EPWDesignHeatingDrybulb,                !- Feature Name 25
  Double,                                 !- Feature Data Type 25
  9.8599999999999994,                     !- Feature Value 25
  EPWDesignHeatingWindspeed,              !- Feature Name 26
  Double,                                 !- Feature Data Type 26
  10.199999999999999,                     !- Feature Value 26
  EPWDesignCoolingDrybulb,                !- Feature Name 27
  Double,                                 !- Feature Data Type 27
  87.439999999999998,                     !- Feature Value 27
  EPWDesignCoolingWetbulb,                !- Feature Name 28
  Double,                                 !- Feature Data Type 28
  71.060000000000002,                     !- Feature Value 28
  EPWDesignCoolingHumidityRatio,          !- Feature Name 29
  Double,                                 !- Feature Data Type 29
  0.013175058867890419,                   !- Feature Value 29
  EPWDesignCoolingWindspeed,              !- Feature Name 30
  Double,                                 !- Feature Data Type 30
  4.4000000000000004,                     !- Feature Value 30
  EPWDesignDailyTemperatureRange,         !- Feature Name 31
  Double,                                 !- Feature Data Type 31
  17.82,                                  !- Feature Value 31
  EPWDesignDehumidDrybulb,                !- Feature Name 32
  Double,                                 !- Feature Data Type 32
  77.180000000000007,                     !- Feature Value 32
  EPWDesignDehumidHumidityRatio,          !- Feature Name 33
  Double,                                 !- Feature Data Type 33
  0.016399559846413815,                   !- Feature Value 33
  EPWDesignCoolingDirectNormal,           !- Feature Name 34
  Double,                                 !- Feature Data Type 34
  874,                                    !- Feature Value 34
  EPWDesignCoolingDiffuseHorizontal,      !- Feature Name 35
  Double,                                 !- Feature Data Type 35
  145;                                    !- Feature Value 35

OS:ClimateZones,
  {c5f2ac13-d36d-4c20-8bb7-965e653ce6be}, !- Handle
  Building America,                       !- Climate Zone Institution Name 1
  ,                                       !- Climate Zone Document Name 1
  0,                                      !- Climate Zone Document Year 1
  Cold;                                   !- Climate Zone Value 1

OS:Site:WaterMainsTemperature,
  {3fd4be9b-3892-46c6-aecc-ebce971df241}, !- Handle
  Correlation,                            !- Calculation Method
  ,                                       !- Temperature Schedule Name
  11.239600456621,                        !- Annual Average Outdoor Air Temperature {C}
  22.1057795698925;                       !- Maximum Difference In Monthly Average Outdoor Air Temperatures {deltaC}

OS:RunPeriodControl:DaylightSavingTime,
  {d8458393-010f-4019-88e6-811bd46071e0}, !- Handle
  3/10,                                   !- Start Date
  11/3;                                   !- End Date

OS:Site:GroundTemperature:Deep,
  {c0bfb561-3731-45bc-8eaa-3d9f2a56eeda}, !- Handle
  11.239600456621,                        !- January Deep Ground Temperature {C}
  11.239600456621,                        !- February Deep Ground Temperature {C}
  11.239600456621,                        !- March Deep Ground Temperature {C}
  11.239600456621,                        !- April Deep Ground Temperature {C}
  11.239600456621,                        !- May Deep Ground Temperature {C}
  11.239600456621,                        !- June Deep Ground Temperature {C}
  11.239600456621,                        !- July Deep Ground Temperature {C}
  11.239600456621,                        !- August Deep Ground Temperature {C}
  11.239600456621,                        !- September Deep Ground Temperature {C}
  11.239600456621,                        !- October Deep Ground Temperature {C}
  11.239600456621,                        !- November Deep Ground Temperature {C}
  11.239600456621;                        !- December Deep Ground Temperature {C}

OS:ThermalZone,
  {04c9d094-a069-4bfd-9c93-f66b7fc787f4}, !- Handle
  living zone,                            !- Name
  ,                                       !- Multiplier
  ,                                       !- Ceiling Height {m}
  ,                                       !- Volume {m3}
  ,                                       !- Floor Area {m2}
  ,                                       !- Zone Inside Convection Algorithm
  ,                                       !- Zone Outside Convection Algorithm
  ,                                       !- Zone Conditioning Equipment List Name
  {dde24e52-816f-4fd5-a0fd-b4e22aba6aed}, !- Zone Air Inlet Port List
  {ccf288f9-e967-4361-9804-7c94026e98d0}, !- Zone Air Exhaust Port List
  {cbcd200b-409b-48a6-9588-674b6a215ae6}, !- Zone Air Node Name
  {c46077e1-9873-4113-96ba-8876aabfa484}, !- Zone Return Air Port List
  ,                                       !- Primary Daylighting Control Name
  ,                                       !- Fraction of Zone Controlled by Primary Daylighting Control
  ,                                       !- Secondary Daylighting Control Name
  ,                                       !- Fraction of Zone Controlled by Secondary Daylighting Control
  ,                                       !- Illuminance Map Name
  ,                                       !- Group Rendering Name
  {1880110e-062c-46c2-88f6-131345f43a24}, !- Thermostat Name
  No;                                     !- Use Ideal Air Loads

OS:Node,
  {b8e441c3-215e-4631-9891-6c804cb94397}, !- Handle
  Node 1,                                 !- Name
  {cbcd200b-409b-48a6-9588-674b6a215ae6}, !- Inlet Port
  ;                                       !- Outlet Port

OS:Connection,
  {cbcd200b-409b-48a6-9588-674b6a215ae6}, !- Handle
  {04c9d094-a069-4bfd-9c93-f66b7fc787f4}, !- Source Object
  11,                                     !- Outlet Port
  {b8e441c3-215e-4631-9891-6c804cb94397}, !- Target Object
  2;                                      !- Inlet Port

OS:PortList,
  {dde24e52-816f-4fd5-a0fd-b4e22aba6aed}, !- Handle
  {04c9d094-a069-4bfd-9c93-f66b7fc787f4}, !- HVAC Component
  {6b85d7f3-ac0b-497b-930a-083516ee26e0}; !- Port 1

OS:PortList,
  {ccf288f9-e967-4361-9804-7c94026e98d0}, !- Handle
  {04c9d094-a069-4bfd-9c93-f66b7fc787f4}; !- HVAC Component

OS:PortList,
  {c46077e1-9873-4113-96ba-8876aabfa484}, !- Handle
  {04c9d094-a069-4bfd-9c93-f66b7fc787f4}, !- HVAC Component
  {c6df7b03-c6ef-4f08-a74e-e0461a0f5cb7}; !- Port 1

OS:Sizing:Zone,
  {a2641f16-8259-41f5-80f8-d10320bd7307}, !- Handle
  {04c9d094-a069-4bfd-9c93-f66b7fc787f4}, !- Zone or ZoneList Name
  SupplyAirTemperature,                   !- Zone Cooling Design Supply Air Temperature Input Method
  14,                                     !- Zone Cooling Design Supply Air Temperature {C}
  11.11,                                  !- Zone Cooling Design Supply Air Temperature Difference {deltaC}
  SupplyAirTemperature,                   !- Zone Heating Design Supply Air Temperature Input Method
  40,                                     !- Zone Heating Design Supply Air Temperature {C}
  11.11,                                  !- Zone Heating Design Supply Air Temperature Difference {deltaC}
  0.0085,                                 !- Zone Cooling Design Supply Air Humidity Ratio {kg-H2O/kg-air}
  0.008,                                  !- Zone Heating Design Supply Air Humidity Ratio {kg-H2O/kg-air}
  ,                                       !- Zone Heating Sizing Factor
  ,                                       !- Zone Cooling Sizing Factor
  DesignDay,                              !- Cooling Design Air Flow Method
  ,                                       !- Cooling Design Air Flow Rate {m3/s}
  ,                                       !- Cooling Minimum Air Flow per Zone Floor Area {m3/s-m2}
  ,                                       !- Cooling Minimum Air Flow {m3/s}
  ,                                       !- Cooling Minimum Air Flow Fraction
  DesignDay,                              !- Heating Design Air Flow Method
  ,                                       !- Heating Design Air Flow Rate {m3/s}
  ,                                       !- Heating Maximum Air Flow per Zone Floor Area {m3/s-m2}
  ,                                       !- Heating Maximum Air Flow {m3/s}
  ,                                       !- Heating Maximum Air Flow Fraction
  No,                                     !- Account for Dedicated Outdoor Air System
  NeutralSupplyAir,                       !- Dedicated Outdoor Air System Control Strategy
  autosize,                               !- Dedicated Outdoor Air Low Setpoint Temperature for Design {C}
  autosize;                               !- Dedicated Outdoor Air High Setpoint Temperature for Design {C}

OS:ZoneHVAC:EquipmentList,
  {78b2e67b-b9bc-456d-9c69-5193d34ac6e5}, !- Handle
  Zone HVAC Equipment List 1,             !- Name
  {04c9d094-a069-4bfd-9c93-f66b7fc787f4}, !- Thermal Zone
  SequentialLoad,                         !- Load Distribution Scheme
  {774aae88-3760-4438-a97f-c23a3d58d910}, !- Zone Equipment 1
  1,                                      !- Zone Equipment Cooling Sequence 1
  1,                                      !- Zone Equipment Heating or No-Load Sequence 1
  ,                                       !- Zone Equipment Sequential Cooling Fraction Schedule Name 1
  ;                                       !- Zone Equipment Sequential Heating Fraction Schedule Name 1

OS:Space,
  {0ae39f41-8adb-4246-a499-8f50eeed2591}, !- Handle
  living space,                           !- Name
  {3500fd2a-861e-417f-89f1-b09c7f70f010}, !- Space Type Name
  ,                                       !- Default Construction Set Name
  ,                                       !- Default Schedule Set Name
  -0,                                     !- Direction of Relative North {deg}
  0,                                      !- X Origin {m}
  0,                                      !- Y Origin {m}
  0,                                      !- Z Origin {m}
  ,                                       !- Building Story Name
  {04c9d094-a069-4bfd-9c93-f66b7fc787f4}, !- Thermal Zone Name
  ,                                       !- Part of Total Floor Area
  ,                                       !- Design Specification Outdoor Air Object Name
  {3d5896b1-e22d-4ff2-a046-05e97c2e8df9}; !- Building Unit Name

OS:Surface,
  {1775aec2-a898-416a-8090-cb7cdd03a8ec}, !- Handle
  Surface 1,                              !- Name
  Floor,                                  !- Surface Type
  {8bc4e678-10b5-4ae5-ac6f-b1240e7428a1}, !- Construction Name
  {0ae39f41-8adb-4246-a499-8f50eeed2591}, !- Space Name
  Surface,                                !- Outside Boundary Condition
  {7565ca5c-d056-4543-8c4d-8386374fe290}, !- Outside Boundary Condition Object
  NoSun,                                  !- Sun Exposure
  NoWind,                                 !- Wind Exposure
  ,                                       !- View Factor to Ground
  ,                                       !- Number of Vertices
  0, 0, 0,                                !- X,Y,Z Vertex 1 {m}
  0, 6.604, 0,                            !- X,Y,Z Vertex 2 {m}
  11.8872, 6.604, 0,                      !- X,Y,Z Vertex 3 {m}
  11.8872, 0, 0;                          !- X,Y,Z Vertex 4 {m}

OS:Surface,
  {b3e1b392-998c-4108-b85b-2ed85322880c}, !- Handle
  Surface 2,                              !- Name
  Wall,                                   !- Surface Type
  {ecedca41-cbe2-4269-ac7b-e41ba62a64a4}, !- Construction Name
  {0ae39f41-8adb-4246-a499-8f50eeed2591}, !- Space Name
  Outdoors,                               !- Outside Boundary Condition
  ,                                       !- Outside Boundary Condition Object
  SunExposed,                             !- Sun Exposure
  WindExposed,                            !- Wind Exposure
  ,                                       !- View Factor to Ground
  ,                                       !- Number of Vertices
  0, 6.604, 2.4384,                       !- X,Y,Z Vertex 1 {m}
  0, 6.604, 0,                            !- X,Y,Z Vertex 2 {m}
  0, 0, 0,                                !- X,Y,Z Vertex 3 {m}
  0, 0, 2.4384;                           !- X,Y,Z Vertex 4 {m}

OS:Surface,
  {c5401817-9c42-41dd-aa3c-208830a2b409}, !- Handle
  Surface 3,                              !- Name
  Wall,                                   !- Surface Type
  {ecedca41-cbe2-4269-ac7b-e41ba62a64a4}, !- Construction Name
  {0ae39f41-8adb-4246-a499-8f50eeed2591}, !- Space Name
  Outdoors,                               !- Outside Boundary Condition
  ,                                       !- Outside Boundary Condition Object
  SunExposed,                             !- Sun Exposure
  WindExposed,                            !- Wind Exposure
  ,                                       !- View Factor to Ground
  ,                                       !- Number of Vertices
  11.8872, 6.604, 2.4384,                 !- X,Y,Z Vertex 1 {m}
  11.8872, 6.604, 0,                      !- X,Y,Z Vertex 2 {m}
  0, 6.604, 0,                            !- X,Y,Z Vertex 3 {m}
  0, 6.604, 2.4384;                       !- X,Y,Z Vertex 4 {m}

OS:Surface,
  {04591a21-6786-481a-b685-b20d08a028bb}, !- Handle
  Surface 4,                              !- Name
  Wall,                                   !- Surface Type
  {ecedca41-cbe2-4269-ac7b-e41ba62a64a4}, !- Construction Name
  {0ae39f41-8adb-4246-a499-8f50eeed2591}, !- Space Name
  Outdoors,                               !- Outside Boundary Condition
  ,                                       !- Outside Boundary Condition Object
  SunExposed,                             !- Sun Exposure
  WindExposed,                            !- Wind Exposure
  ,                                       !- View Factor to Ground
  ,                                       !- Number of Vertices
  11.8872, 0, 2.4384,                     !- X,Y,Z Vertex 1 {m}
  11.8872, 0, 0,                          !- X,Y,Z Vertex 2 {m}
  11.8872, 6.604, 0,                      !- X,Y,Z Vertex 3 {m}
  11.8872, 6.604, 2.4384;                 !- X,Y,Z Vertex 4 {m}

OS:Surface,
  {26dddf02-f272-441c-b585-bd37c2eeed02}, !- Handle
  Surface 5,                              !- Name
  Wall,                                   !- Surface Type
  {ecedca41-cbe2-4269-ac7b-e41ba62a64a4}, !- Construction Name
  {0ae39f41-8adb-4246-a499-8f50eeed2591}, !- Space Name
  Outdoors,                               !- Outside Boundary Condition
  ,                                       !- Outside Boundary Condition Object
  SunExposed,                             !- Sun Exposure
  WindExposed,                            !- Wind Exposure
  ,                                       !- View Factor to Ground
  ,                                       !- Number of Vertices
  1.04865714285714, 0, 5.70100433527898e-07, !- X,Y,Z Vertex 1 {m}
  11.8872, 0, 0,                          !- X,Y,Z Vertex 2 {m}
  11.8872, 0, 2.4384,                     !- X,Y,Z Vertex 3 {m}
  1.04865714285714, 0, 2.43840061861962;  !- X,Y,Z Vertex 4 {m}

OS:Surface,
  {47431c2c-0d46-436e-a0ac-fff09832d01a}, !- Handle
  Surface 6,                              !- Name
  RoofCeiling,                            !- Surface Type
  {958bbce9-3c50-4deb-afd1-de6b723e33b9}, !- Construction Name
  {0ae39f41-8adb-4246-a499-8f50eeed2591}, !- Space Name
  Surface,                                !- Outside Boundary Condition
  {084d6f07-7a39-4e08-ba57-56dae40b4255}, !- Outside Boundary Condition Object
  NoSun,                                  !- Sun Exposure
  NoWind,                                 !- Wind Exposure
  ,                                       !- View Factor to Ground
  ,                                       !- Number of Vertices
  11.8872, 0, 2.4384,                     !- X,Y,Z Vertex 1 {m}
  11.8872, 6.604, 2.4384,                 !- X,Y,Z Vertex 2 {m}
  0, 6.604, 2.4384,                       !- X,Y,Z Vertex 3 {m}
  0, 0, 2.4384;                           !- X,Y,Z Vertex 4 {m}

OS:SpaceType,
  {3500fd2a-861e-417f-89f1-b09c7f70f010}, !- Handle
  Space Type 1,                           !- Name
  ,                                       !- Default Construction Set Name
  ,                                       !- Default Schedule Set Name
  ,                                       !- Group Rendering Name