
OS:Version,
  {e63d2992-7370-490e-ab85-33ac242f00fc}, !- Handle
  3.2.1;                                  !- Version Identifier

OS:Building,
  {bd0d796f-e8b5-4e9f-ac4f-53e3631381ba}, !- Handle
  Building 1,                             !- Name
  ,                                       !- Building Sector Type
  135,                                    !- North Axis {deg}
  ,                                       !- Nominal Floor to Floor Height {m}
  ,                                       !- Space Type Name
  ,                                       !- Default Construction Set Name
  ,                                       !- Default Schedule Set Name
  2,                                      !- Standards Number of Stories
  2,                                      !- Standards Number of Above Ground Stories
  ,                                       !- Standards Template
  singlefamilydetached,                   !- Standards Building Type
  1;                                      !- Standards Number of Living Units

OS:Facility,
  {383721ea-0025-44d1-b130-422da358d0de}; !- Handle

OS:Site,
  {e4ae2457-2a13-4688-8c4f-104b6bfec3bb}, !- Handle
  Charleston Intl Arpt_SC_USA,            !- Name
  32.9,                                   !- Latitude {deg}
  -80.03,                                 !- Longitude {deg}
  -5,                                     !- Time Zone {hr}
  12,                                     !- Elevation {m}
  Suburbs;                                !- Terrain

OS:SimulationControl,
  {b37aea27-d118-4d67-b5c7-ce36f5c4eaff}, !- Handle
  ,                                       !- Do Zone Sizing Calculation
  ,                                       !- Do System Sizing Calculation
  ,                                       !- Do Plant Sizing Calculation
  No;                                     !- Run Simulation for Sizing Periods

OS:Sizing:Parameters,
  {b60b264c-7dcb-4edf-9405-4c73a5daf77e}, !- Handle
  1.25,                                   !- Heating Sizing Factor
  1.15;                                   !- Cooling Sizing Factor

OS:Timestep,
  {5da86bfd-2284-4959-9291-51b0f21f91e6}, !- Handle
  4;                                      !- Number of Timesteps per Hour

OS:ShadowCalculation,
  {9e99fe35-f1ae-4388-8711-daaff696b91e}, !- Handle
  PolygonClipping,                        !- Shading Calculation Method
  ,                                       !- Shading Calculation Update Frequency Method
  20,                                     !- Shading Calculation Update Frequency
  200,                                    !- Maximum Figures in Shadow Overlap Calculations
  ,                                       !- Polygon Clipping Algorithm
  512,                                    !- Pixel Counting Resolution
  DetailedSkyDiffuseModeling,             !- Sky Diffuse Modeling Algorithm
  No,                                     !- Output External Shading Calculation Results
  No,                                     !- Disable Self-Shading Within Shading Zone Groups
  No;                                     !- Disable Self-Shading From Shading Zone Groups to Other Zones

OS:HeatBalanceAlgorithm,
  {1205705b-fe91-4194-ba79-98a6a17988e2}, !- Handle
  ConductionTransferFunction,             !- Algorithm
  200;                                    !- Surface Temperature Upper Limit {C}

OS:RunPeriod,
  {c3b967c6-3ac7-484f-8964-fa47a09c3025}, !- Handle
  Run Period 1,                           !- Name
  1,                                      !- Begin Month
  1,                                      !- Begin Day of Month
  12,                                     !- End Month
  31,                                     !- End Day of Month
  ,                                       !- Use Weather File Holidays and Special Days
  ,                                       !- Use Weather File Daylight Saving Period
  ,                                       !- Apply Weekend Holiday Rule
  ,                                       !- Use Weather File Rain Indicators
  ,                                       !- Use Weather File Snow Indicators
  ;                                       !- Number of Times Runperiod to be Repeated

OS:LifeCycleCost:Parameters,
  {227d07c7-c615-41aa-9441-092e3498441b}, !- Handle
  ,                                       !- Analysis Type
  ,                                       !- Discounting Convention
  ,                                       !- Inflation Approach
  ,                                       !- Real Discount Rate
  ,                                       !- Nominal Discount Rate
  ,                                       !- Inflation
  ,                                       !- Base Date Month
  ,                                       !- Base Date Year
  ,                                       !- Service Date Month
  ,                                       !- Service Date Year
  ;                                       !- Length of Study Period in Years

OS:SurfaceConvectionAlgorithm:Outside,
  {f56a9e21-a83b-43ea-b750-dc54a25bf92f}, !- Handle
  DOE-2;                                  !- Algorithm

OS:SurfaceConvectionAlgorithm:Inside,
  {d7c33bbd-2e90-4018-b8f8-73fa6e101a22}, !- Handle
  TARP;                                   !- Algorithm

OS:ZoneCapacitanceMultiplier:ResearchSpecial,
  {ae636160-0677-4d37-8fa7-f2279e69d53e}, !- Handle
  ,                                       !- Temperature Capacity Multiplier
  15,                                     !- Humidity Capacity Multiplier
  ;                                       !- Carbon Dioxide Capacity Multiplier

OS:YearDescription,
  {e3f60941-83a1-4cc6-a46d-51b1cea2e954}, !- Handle
  2018,                                   !- Calendar Year
  ,                                       !- Day of Week for Start Day
  ;                                       !- Is Leap Year

OS:AdditionalProperties,
  {a5758f21-acbb-4496-adfb-c942bda97afa}, !- Handle
  {bd0d796f-e8b5-4e9f-ac4f-53e3631381ba}, !- Object Name
  Building ID,                            !- Feature Name 1
  Integer,                                !- Feature Data Type 1
  395397,                                 !- Feature Value 1
  num_occupants,                          !- Feature Name 2
  Integer,                                !- Feature Data Type 2
  2,                                      !- Feature Value 2
  Schedules Path,                         !- Feature Name 3
  String,                                 !- Feature Data Type 3
  /var/simdata/openstudio/run/schedules.csv, !- Feature Value 3
  Total Units Modeled,                    !- Feature Name 4
  Integer,                                !- Feature Data Type 4
  1,                                      !- Feature Value 4
  has_water_heater_flue,                  !- Feature Name 5
  Boolean,                                !- Feature Data Type 5
  true,                                   !- Feature Value 5
  has_hvac_flue,                          !- Feature Name 6
  Boolean,                                !- Feature Data Type 6
  false,                                  !- Feature Value 6
  has_fireplace_chimney,                  !- Feature Name 7
  Boolean,                                !- Feature Data Type 7
  false;                                  !- Feature Value 7

OS:WeatherFile,
  {04338816-9a29-4084-b226-47360723bed0}, !- Handle
  Charleston Intl Arpt,                   !- City
  SC,                                     !- State Province Region
  USA,                                    !- Country
  TMY3,                                   !- Data Source
  722080,                                 !- WMO Number
  32.9,                                   !- Latitude {deg}
  -80.03,                                 !- Longitude {deg}
  -5,                                     !- Time Zone {hr}
  12,                                     !- Elevation {m}
  /weather/G4500190.epw,                  !- Url
  25073BC7;                               !- Checksum

OS:AdditionalProperties,
  {7de7d6b3-0337-4669-94e5-a88cf463964b}, !- Handle
  {04338816-9a29-4084-b226-47360723bed0}, !- Object Name
  EPWHeaderCity,                          !- Feature Name 1
  String,                                 !- Feature Data Type 1
  Charleston Intl Arpt,                   !- Feature Value 1
  EPWHeaderState,                         !- Feature Name 2
  String,                                 !- Feature Data Type 2
  SC,                                     !- Feature Value 2
  EPWHeaderCountry,                       !- Feature Name 3
  String,                                 !- Feature Data Type 3
  USA,                                    !- Feature Value 3
  EPWHeaderDataSource,                    !- Feature Name 4
  String,                                 !- Feature Data Type 4
  TMY3,                                   !- Feature Value 4
  EPWHeaderStation,                       !- Feature Name 5
  String,                                 !- Feature Data Type 5
  722080,                                 !- Feature Value 5
  EPWHeaderLatitude,                      !- Feature Name 6
  Double,                                 !- Feature Data Type 6
  32.899999999999999,                     !- Feature Value 6
  EPWHeaderLongitude,                     !- Feature Name 7
  Double,                                 !- Feature Data Type 7
  -80.030000000000001,                    !- Feature Value 7
  EPWHeaderTimezone,                      !- Feature Name 8
  Double,                                 !- Feature Data Type 8
  -5,                                     !- Feature Value 8
  EPWHeaderAltitude,                      !- Feature Name 9
  Double,                                 !- Feature Data Type 9
  39.370078740157481,                     !- Feature Value 9
  EPWHeaderLocalPressure,                 !- Feature Name 10
  Double,                                 !- Feature Data Type 10
  0.99855223013378125,                    !- Feature Value 10
  EPWHeaderRecordsPerHour,                !- Feature Name 11
  Double,                                 !- Feature Data Type 11
  1,                                      !- Feature Value 11
  EPWDataAnnualAvgDrybulb,                !- Feature Name 12
  Double,                                 !- Feature Data Type 12
  65.275404109589005,                     !- Feature Value 12
  EPWDataAnnualMinDrybulb,                !- Feature Name 13
  Double,                                 !- Feature Data Type 13
  21.920000000000002,                     !- Feature Value 13
  EPWDataAnnualMaxDrybulb,                !- Feature Name 14
  Double,                                 !- Feature Data Type 14
  100.03999999999999,                     !- Feature Value 14
  EPWDataCDD50F,                          !- Feature Name 15
  Double,                                 !- Feature Data Type 15
  6059.0625000000036,                     !- Feature Value 15
  EPWDataCDD65F,                          !- Feature Name 16
  Double,                                 !- Feature Data Type 16
  2154.7800000000016,                     !- Feature Value 16
  EPWDataHDD50F,                          !- Feature Name 17
  Double,                                 !- Feature Data Type 17
  483.54000000000008,                     !- Feature Value 17
  EPWDataHDD65F,                          !- Feature Name 18
  Double,                                 !- Feature Data Type 18
  2054.2574999999997,                     !- Feature Value 18
  EPWDataAnnualAvgWindspeed,              !- Feature Name 19
  Double,                                 !- Feature Data Type 19
  3.6280821917806163,                     !- Feature Value 19
  EPWDataMonthlyAvgDrybulbs,              !- Feature Name 20
  String,                                 !- Feature Data Type 20
  47.20032258064515&#4448.98428571428574&#4460.092096774193564&#4464.86&#4471.5361290322581&#4478.06949999999999&#4481.33040322580652&#4480.44637096774198&#4475.92524999999998&#4465.32491935483873&#4458.96424999999996&#4449.53403225806454, !- Feature Value 20
  EPWDataGroundMonthlyTemps,              !- Feature Name 21
  String,                                 !- Feature Data Type 21
  59.198955837678625&#4456.58860397506993&#4456.37955763663359&#4457.61830297502553&#4462.59117522550338&#4467.54088172743485&#4471.83201273126343&#4474.55033868397271&#4474.7812754043585&#4472.57037413006543&#4468.38866948622086&#4463.590799819259644, !- Feature Value 21
  EPWDataWSF,                             !- Feature Name 22
  Double,                                 !- Feature Data Type 22
  0.42999999999999999,                    !- Feature Value 22
  EPWDataMonthlyAvgDailyHighDrybulbs,     !- Feature Name 23
  String,                                 !- Feature Data Type 23
  57.35096774193548&#4459.03857142857143&#4469.88129032258064&#4476.388&#4481.25032258064516&#4486.53999999999999&#4490.58129032258063&#4488.21806451612905&#4485.298&#4475.3683870967742&#4470.406&#4459.24967741935484, !- Feature Value 23
  EPWDataMonthlyAvgDailyLowDrybulbs,      !- Feature Name 24
  String,                                 !- Feature Data Type 24
  37.318709677419356&#4438.222857142857144&#4450.644516129032255&#4453.876000000000005&#4462.414193548387104&#4470.23200000000003&#4473.31870967741938&#4473.88774193548386&#4468.88799999999999&#4456.16064516129032&#4449.652&#4440.21612903225807, !- Feature Value 24
  EPWDesignHeatingDrybulb,                !- Feature Name 25
  Double,                                 !- Feature Data Type 25
  30.379999999999999,                     !- Feature Value 25
  EPWDesignHeatingWindspeed,              !- Feature Name 26
  Double,                                 !- Feature Data Type 26
  9.9000000000000004,                     !- Feature Value 26
  EPWDesignCoolingDrybulb,                !- Feature Name 27
  Double,                                 !- Feature Data Type 27
  92.120000000000005,                     !- Feature Value 27
  EPWDesignCoolingWetbulb,                !- Feature Name 28
  Double,                                 !- Feature Data Type 28
  77.539999999999992,                     !- Feature Value 28
  EPWDesignCoolingHumidityRatio,          !- Feature Name 29
  Double,                                 !- Feature Data Type 29
  0.016923034779010682,                   !- Feature Value 29
  EPWDesignCoolingWindspeed,              !- Feature Name 30
  Double,                                 !- Feature Data Type 30
  4.4000000000000004,                     !- Feature Value 30
  EPWDesignDailyTemperatureRange,         !- Feature Name 31
  Double,                                 !- Feature Data Type 31
  16.199999999999999,                     !- Feature Value 31
  EPWDesignDehumidDrybulb,                !- Feature Name 32
  Double,                                 !- Feature Data Type 32
  82.580000000000013,                     !- Feature Value 32
  EPWDesignDehumidHumidityRatio,          !- Feature Name 33
  Double,                                 !- Feature Data Type 33
  0.019866892854256402,                   !- Feature Value 33
  EPWDesignCoolingDirectNormal,           !- Feature Name 34
  Double,                                 !- Feature Data Type 34
  853,                                    !- Feature Value 34
  EPWDesignCoolingDiffuseHorizontal,      !- Feature Name 35
  Double,                                 !- Feature Data Type 35
  172;                                    !- Feature Value 35

OS:ClimateZones,
  {079c12e9-0817-4952-95d6-cd802a80769c}, !- Handle
  Building America,                       !- Climate Zone Institution Name 1
  ,                                       !- Climate Zone Document Name 1
  0,                                      !- Climate Zone Document Year 1
  Hot-Humid;                              !- Climate Zone Value 1

OS:Site:WaterMainsTemperature,
  {5d4aaf16-7ca4-42f8-89e9-e599aa4e031b}, !- Handle
  Correlation,                            !- Calculation Method
  ,                                       !- Temperature Schedule Name
  18.4863356164383,                       !- Annual Average Outdoor Air Temperature {C}
  18.9611559139785;                       !- Maximum Difference In Monthly Average Outdoor Air Temperatures {deltaC}

OS:RunPeriodControl:DaylightSavingTime,
  {8bb5467f-7190-4bc4-9260-559d31f9741e}, !- Handle
  3/10,                                   !- Start Date
  11/3;                                   !- End Date

OS:Site:GroundTemperature:Deep,
  {798391e2-a3e1-4569-b627-8e07bd817d5d}, !- Handle
  18.4863356164383,                       !- January Deep Ground Temperature {C}
  18.4863356164383,                       !- February Deep Ground Temperature {C}
  18.4863356164383,                       !- March Deep Ground Temperature {C}
  18.4863356164383,                       !- April Deep Ground Temperature {C}
  18.4863356164383,                       !- May Deep Ground Temperature {C}
  18.4863356164383,                       !- June Deep Ground Temperature {C}
  18.4863356164383,                       !- July Deep Ground Temperature {C}
  18.4863356164383,                       !- August Deep Ground Temperature {C}
  18.4863356164383,                       !- September Deep Ground Temperature {C}
  18.4863356164383,                       !- October Deep Ground Temperature {C}
  18.4863356164383,                       !- November Deep Ground Temperature {C}
  18.4863356164383;                       !- December Deep Ground Temperature {C}

OS:ThermalZone,
  {37a40487-adfc-4a8f-9777-e1423b5be9bf}, !- Handle
  living zone,                            !- Name
  ,                                       !- Multiplier
  ,                                       !- Ceiling Height {m}
  ,                                       !- Volume {m3}
  ,                                       !- Floor Area {m2}
  ,                                       !- Zone Inside Convection Algorithm
  ,                                       !- Zone Outside Convection Algorithm
  ,                                       !- Zone Conditioning Equipment List Name
  {97adac2f-1d2f-4938-80de-8049971bf47a}, !- Zone Air Inlet Port List
  {d9b4d5ae-e1e9-447a-afae-e9370fb44156}, !- Zone Air Exhaust Port List
  {7b2c9a2c-823a-48d9-85af-d0288035acbd}, !- Zone Air Node Name
  {95f0e6a1-2e8e-4263-a0c8-916b6b8c2624}, !- Zone Return Air Port List
  ,                                       !- Primary Daylighting Control Name
  ,                                       !- Fraction of Zone Controlled by Primary Daylighting Control
  ,                                       !- Secondary Daylighting Control Name
  ,                                       !- Fraction of Zone Controlled by Secondary Daylighting Control
  ,                                       !- Illuminance Map Name
  ,                                       !- Group Rendering Name
  {8e9307ec-a11c-4591-a514-0fb94459164f}, !- Thermostat Name
  No;                                     !- Use Ideal Air Loads

OS:Node,
  {1b4af4b4-cee8-409c-9054-f0f16bb5b75f}, !- Handle
  Node 1,                                 !- Name
  {7b2c9a2c-823a-48d9-85af-d0288035acbd}, !- Inlet Port
  ;                                       !- Outlet Port

OS:Connection,
  {7b2c9a2c-823a-48d9-85af-d0288035acbd}, !- Handle
  {37a40487-adfc-4a8f-9777-e1423b5be9bf}, !- Source Object
  11,                                     !- Outlet Port
  {1b4af4b4-cee8-409c-9054-f0f16bb5b75f}, !- Target Object
  2;                                      !- Inlet Port

OS:PortList,
  {97adac2f-1d2f-4938-80de-8049971bf47a}, !- Handle
  {37a40487-adfc-4a8f-9777-e1423b5be9bf}, !- HVAC Component
  {acb01e7c-380a-458b-8932-f81db78f18af}, !- Port 1
  {b707f4fa-ee43-4816-8a4e-f541349c27dc}; !- Port 2

OS:PortList,
  {d9b4d5ae-e1e9-447a-afae-e9370fb44156}, !- Handle
  {37a40487-adfc-4a8f-9777-e1423b5be9bf}; !- HVAC Component

OS:PortList,
  {95f0e6a1-2e8e-4263-a0c8-916b6b8c2624}, !- Handle
  {37a40487-adfc-4a8f-9777-e1423b5be9bf}, !- HVAC Component
  {e6bed697-9b44-4171-a6fc-534164cef473}, !- Port 1
  {b8072396-d2a5-496a-85f8-eb6fa71cbd80}; !- Port 2

OS:Sizing:Zone,
  {9c50c361-7f40-4fe2-924a-b6f1536b6ba6}, !- Handle
  {37a40487-adfc-4a8f-9777-e1423b5be9bf}, !- Zone or ZoneList Name
  SupplyAirTemperature,                   !- Zone Cooling Design Supply Air Temperature Input Method
  14,                                     !- Zone Cooling Design Supply Air Temperature {C}
  11.11,                                  !- Zone Cooling Design Supply Air Temperature Difference {deltaC}
  SupplyAirTemperature,                   !- Zone Heating Design Supply Air Temperature Input Method
  40,                                     !- Zone Heating Design Supply Air Temperature {C}
  11.11,                                  !- Zone Heating Design Supply Air Temperature Difference {deltaC}
  0.0085,                                 !- Zone Cooling Design Supply Air Humidity Ratio {kg-H2O/kg-air}
  0.008,                                  !- Zone Heating Design Supply Air Humidity Ratio {kg-H2O/kg-air}
  ,                                       !- Zone Heating Sizing Factor
  ,                                       !- Zone Cooling Sizing Factor
  DesignDay,                              !- Cooling Design Air Flow Method
  ,                                       !- Cooling Design Air Flow Rate {m3/s}
  ,                                       !- Cooling Minimum Air Flow per Zone Floor Area {m3/s-m2}
  ,                                       !- Cooling Minimum Air Flow {m3/s}
  ,                                       !- Cooling Minimum Air Flow Fraction
  DesignDay,                              !- Heating Design Air Flow Method
  ,                                       !- Heating Design Air Flow Rate {m3/s}
  ,                                       !- Heating Maximum Air Flow per Zone Floor Area {m3/s-m2}
  ,                                       !- Heating Maximum Air Flow {m3/s}
  ,                                       !- Heating Maximum Air Flow Fraction
  No,                                     !- Account for Dedicated Outdoor Air System
  NeutralSupplyAir,                       !- Dedicated Outdoor Air System Control Strategy
  autosize,                               !- Dedicated Outdoor Air Low Setpoint Temperature for Design {C}
  autosize;                               !- Dedicated Outdoor Air High Setpoint Temperature for Design {C}

OS:ZoneHVAC:EquipmentList,
  {aaa49b38-17c0-47fe-976a-b907976e418c}, !- Handle
  Zone HVAC Equipment List 1,             !- Name
  {37a40487-adfc-4a8f-9777-e1423b5be9bf}, !- Thermal Zone
  SequentialLoad,                         !- Load Distribution Scheme
  {be747e66-d8f7-4b5d-b90a-06ee2bfa77ac}, !- Zone Equipment 1
  1,                                      !- Zone Equipment Cooling Sequence 1
  1,                                      !- Zone Equipment Heating or No-Load Sequence 1
  ,                                       !- Zone Equipment Sequential Cooling Fraction Schedule Name 1
  ,                                       !- Zone Equipment Sequential Heating Fraction Schedule Name 1
  {9c5d9ffe-6c11-401c-900e-9fb459840887}, !- Zone Equipment 2
  2,                                      !- Zone Equipment Cooling Sequence 2
  2,                                      !- Zone Equipment Heating or No-Load Sequence 2
  ,                                       !- Zone Equipment Sequential Cooling Fraction Schedule Name 2
  ;                                       !- Zone Equipment Sequential Heating Fraction Schedule Name 2

OS:ThermalZone,
  {8c0ac00b-cb67-4119-b982-8e8f660de879}, !- Handle
  garage zone,                            !- Name
  ,                                       !- Multiplier
  ,                                       !- Ceiling Height {m}
  ,                                       !- Volume {m3}
  ,                                       !- Floor Area {m2}
  ,                                       !- Zone Inside Convection Algorithm
  ,                                       !- Zone Outside Convection Algorithm
  ,                                       !- Zone Conditioning Equipment List Name
  {f2810c1b-29f0-4620-975d-cdb72cc0d6cf}, !- Zone Air Inlet Port List
  {93adafb1-f726-4162-84fa-576cd3108233}, !- Zone Air Exhaust Port List
  {a1b19baa-8784-45c9-b10b-f6a6825e2101}, !- Zone Air Node Name
  {820e829f-653b-4873-99ca-6979882d5225}, !- Zone Return Air Port List
  ,                                       !- Primary Daylighting Control Name
  ,                                       !- Fraction of Zone Controlled by Primary Daylighting Control
  ,                                       !- Secondary Daylighting Control Name
  ,                                       !- Fraction of Zone Controlled by Secondary Daylighting Control
  ,                                       !- Illuminance Map Name
  ,                                       !- Group Rendering Name
  ,                                       !- Thermostat Name
  No;                                     !- Use Ideal Air Loads

OS:Node,
  {4f805286-21bc-4080-b6f4-d8f711d7869c}, !- Handle
  Node 2,                                 !- Name
  {a1b19baa-8784-45c9-b10b-f6a6825e2101}, !- Inlet Port
  ;                                       !- Outlet Port

OS:Connection,
  {a1b19baa-8784-45c9-b10b-f6a6825e2101}, !- Handle
  {8c0ac00b-cb67-4119-b982-8e8f660de879}, !- Source Object
  11,                                     !- Outlet Port
  {4f805286-21bc-4080-b6f4-d8f711d7869c}, !- Target Object
  2;                                      !- Inlet Port

OS:PortList,
  {f2810c1b-29f0-4620-975d-cdb72cc0d6cf}, !- Handle
  {8c0ac00b-cb67-4119-b982-8e8f660de879}; !- HVAC Component

OS:PortList,
  {93adafb1-f726-4162-84fa-576cd3108233}, !- Handle
  {8c0ac00b-cb67-4119-b982-8e8f660de879}; !- HVAC Component

OS:PortList,
  {820e829f-653b-4873-99ca-6979882d5225}, !- Handle
  {8c0ac00b-cb67-4119-b982-8e8f660de879}; !- HVAC Component

OS:Sizing:Zone,
  {198ec913-b365-44f0-826c-7daaf71eb8f1}, !- Handle
  {8c0ac00b-cb67-4119-b982-8e8f660de879}, !- Zone or ZoneList Name
  SupplyAirTemperature,                   !- Zone Cooling Design Supply Air Temperature Input Method
  14,                                     !- Zone Cooling Design Supply Air Temperature {C}
  11.11,                                  !- Zone Cooling Design Supply Air Temperature Difference {deltaC}
  SupplyAirTemperature,                   !- Zone Heating Design Supply Air Temperature Input Method
  40,                                     !- Zone Heating Design Supply Air Temperature {C}
  11.11,                                  !- Zone Heating Design Supply Air Temperature Difference {deltaC}
  0.0085,                                 !- Zone Cooling Design Supply Air Humidity Ratio {kg-H2O/kg-air}
  0.008,                                  !- Zone Heating Design Supply Air Humidity Ratio {kg-H2O/kg-air}
  ,                                       !- Zone Heating Sizing Factor
  ,                                       !- Zone Cooling Sizing Factor
  DesignDay,                              !- Cooling Design Air Flow Method
  ,                                       !- Cooling Design Air Flow Rate {m3/s}
  ,                                       !- Cooling Minimum Air Flow per Zone Floor Area {m3/s-m2}
  ,                                       !- Cooling Minimum Air Flow {m3/s}
  ,                                       !- Cooling Minimum Air Flow Fraction
  DesignDay,                              !- Heating Design Air Flow Method
  ,                                       !- Heating Design Air Flow Rate {m3/s}
  ,                                       !- Heating Maximum Air Flow per Zone Floor Area {m3/s-m2}
  ,                                       !- Heating Maximum Air Flow {m3/s}
  ,                                       !- Heating Maximum Air Flow Fraction
  No,                                     !- Account for Dedicated Outdoor Air System
  NeutralSupplyAir,                       !- Dedicated Outdoor Air System Control Strategy
  autosize,                               !- Dedicated Outdoor Air Low Setpoint Temperature for Design {C}
  autosize;                               !- Dedicated Outdoor Air High Setpoint Temperature for Design {C}

OS:ZoneHVAC:EquipmentList,
  {0eadd0f6-a6a8-43d9-9753-25216ccc6ac9}, !- Handle
  Zone HVAC Equipment List 2,             !- Name
  {8c0ac00b-cb67-4119-b982-8e8f660de879}; !- Thermal Zone

OS:Space,
  {9d59562d-d411-404f-8a8f-c4e8707376b6}, !- Handle
  garage space,                           !- Name
  {a7f3b0c3-8d87-4579-b307-9a8b48a180df}, !- Space Type Name
  ,                                       !- Default Construction Set Name
  ,                                       !- Default Schedule Set Name
  -0,                                     !- Direction of Relative North {deg}
  0,                                      !- X Origin {m}
  0,                                      !- Y Origin {m}
  0,                                      !- Z Origin {m}
  ,                                       !- Building Story Name
  {8c0ac00b-cb67-4119-b982-8e8f660de879}; !- Thermal Zone Name

OS:Surface,
  {3fc23cba-9a02-4377-b590-9f7c7e6e59a8}, !- Handle
  Surface 1,                              !- Name
  Floor,                                  !- Surface Type
  {a4fc8522-488b-4365-94da-c9cb217b9b0b}, !- Construction Name
  {9d59562d-d411-404f-8a8f-c4e8707376b6}, !- Space Name
  Foundation,                             !- Outside Boundary Condition
  {5f7b7497-9f2e-4c15-99dd-90fd1f58bd25}, !- Outside Boundary Condition Object
  NoSun,                                  !- Sun Exposure
  NoWind,                                 !- Wind Exposure
  ,                                       !- View Factor to Ground
  ,                                       !- Number of Vertices
  9.29821751524953, -3.6576, 0,           !- X,Y,Z Vertex 1 {m}