
OS:Version,
  {27f3f7c2-8d14-4c41-8d1d-9f3e7914e429}, !- Handle
  3.3.0;                                  !- Version Identifier

OS:Building,
  {963e470d-b262-4c15-b1ce-b5ae3fc97bee}, !- Handle
  Building 1,                             !- Name
  ,                                       !- Building Sector Type
  90,                                     !- North Axis {deg}
  ,                                       !- Nominal Floor to Floor Height {m}
  ,                                       !- Space Type Name
  ,                                       !- Default Construction Set Name
  ,                                       !- Default Schedule Set Name
  3,                                      !- Standards Number of Stories
  3,                                      !- Standards Number of Above Ground Stories
  ,                                       !- Standards Template
  singlefamilydetached,                   !- Standards Building Type
  1;                                      !- Standards Number of Living Units

OS:Facility,
  {b5093ff2-dcbc-42e0-8117-1a2c07a06670}; !- Handle

OS:Site,
  {92bd6bdb-8563-4504-a41c-d68062a77c52}, !- Handle
  Denver-Aurora-Buckley AFB,              !- Name
  39.72,                                  !- Latitude {deg}
  -104.75,                                !- Longitude {deg}
  -7,                                     !- Time Zone {hr}
  1726,                                   !- Elevation {m}
  Suburbs;                                !- Terrain

OS:SimulationControl,
  {e171026b-0353-4d57-8fb9-a25a92bbb613}, !- Handle
  ,                                       !- Do Zone Sizing Calculation
  ,                                       !- Do System Sizing Calculation
  ,                                       !- Do Plant Sizing Calculation
  No;                                     !- Run Simulation for Sizing Periods

OS:Sizing:Parameters,
  {167c0567-68e3-46ed-bfd3-b78f956bb714}, !- Handle
  1.25,                                   !- Heating Sizing Factor
  1.15;                                   !- Cooling Sizing Factor

OS:Timestep,
  {b7a755d9-2214-43f5-a013-51527f22b4b9}, !- Handle
  4;                                      !- Number of Timesteps per Hour

OS:ShadowCalculation,
  {3a4401a6-255b-4a1d-97c5-722b89e057a6}, !- Handle
  PolygonClipping,                        !- Shading Calculation Method
  ,                                       !- Shading Calculation Update Frequency Method
  20,                                     !- Shading Calculation Update Frequency
  200,                                    !- Maximum Figures in Shadow Overlap Calculations
  ,                                       !- Polygon Clipping Algorithm
  512,                                    !- Pixel Counting Resolution
  DetailedSkyDiffuseModeling,             !- Sky Diffuse Modeling Algorithm
  No,                                     !- Output External Shading Calculation Results
  No,                                     !- Disable Self-Shading Within Shading Zone Groups
  No;                                     !- Disable Self-Shading From Shading Zone Groups to Other Zones

OS:HeatBalanceAlgorithm,
  {7dabc9c8-d566-407d-bf18-e8224f049f36}, !- Handle
  ConductionTransferFunction,             !- Algorithm
  200;                                    !- Surface Temperature Upper Limit {C}

OS:RunPeriod,
  {8615ca8b-a973-45e0-b8bc-805c081b5c38}, !- Handle
  Run Period 1,                           !- Name
  1,                                      !- Begin Month
  1,                                      !- Begin Day of Month
  12,                                     !- End Month
  31,                                     !- End Day of Month
  ,                                       !- Use Weather File Holidays and Special Days
  ,                                       !- Use Weather File Daylight Saving Period
  ,                                       !- Apply Weekend Holiday Rule
  ,                                       !- Use Weather File Rain Indicators
  ,                                       !- Use Weather File Snow Indicators
  ;                                       !- Number of Times Runperiod to be Repeated

OS:LifeCycleCost:Parameters,
  {22ffece3-0581-44df-a02b-cb35092a9229}, !- Handle
  ,                                       !- Analysis Type
  ,                                       !- Discounting Convention
  ,                                       !- Inflation Approach
  ,                                       !- Real Discount Rate
  ,                                       !- Nominal Discount Rate
  ,                                       !- Inflation
  ,                                       !- Base Date Month
  ,                                       !- Base Date Year
  ,                                       !- Service Date Month
  ,                                       !- Service Date Year
  ;                                       !- Length of Study Period in Years

OS:SurfaceConvectionAlgorithm:Outside,
  {82a22708-29de-47c0-9a90-9879a73e2d47}, !- Handle
  DOE-2;                                  !- Algorithm

OS:SurfaceConvectionAlgorithm:Inside,
  {d76616c0-62d4-4e50-92ac-4b7306e4eb2f}, !- Handle
  TARP;                                   !- Algorithm

OS:ZoneCapacitanceMultiplier:ResearchSpecial,
  {a3f16ce8-bcd9-44cd-85c3-b15c9bc060b9}, !- Handle
  ,                                       !- Temperature Capacity Multiplier
  15,                                     !- Humidity Capacity Multiplier
  ;                                       !- Carbon Dioxide Capacity Multiplier

OS:YearDescription,
  {b9692a0c-82e8-4289-9434-1b1f2dc01a2e}, !- Handle
  ,                                       !- Calendar Year
  Sunday,                                 !- Day of Week for Start Day
  ;                                       !- Is Leap Year

OS:AdditionalProperties,
  {893363ef-9990-4ce7-9d8a-1818066b80f8}, !- Handle
  {963e470d-b262-4c15-b1ce-b5ae3fc97bee}, !- Object Name
  Building ID,                            !- Feature Name 1
  Integer,                                !- Feature Data Type 1
  7447,                                   !- Feature Value 1
  num_occupants,                          !- Feature Name 2
  Integer,                                !- Feature Data Type 2
  1,                                      !- Feature Value 2
  Schedules Path,                         !- Feature Name 3
  String,                                 !- Feature Data Type 3
  /var/simdata/openstudio/run/schedules.csv, !- Feature Value 3
  Total Units Modeled,                    !- Feature Name 4
  Integer,                                !- Feature Data Type 4
  1,                                      !- Feature Value 4
  has_water_heater_flue,                  !- Feature Name 5
  Boolean,                                !- Feature Data Type 5
  false,                                  !- Feature Value 5
  has_fireplace_chimney,                  !- Feature Name 6
  Boolean,                                !- Feature Data Type 6
  true;                                   !- Feature Value 6

OS:ClimateZones,
  {d584a43b-8bfe-4767-9cb9-552219e35481}, !- Handle
  Building America,                       !- Climate Zone Institution Name 1
  ,                                       !- Climate Zone Document Name 1
  0,                                      !- Climate Zone Document Year 1
  Cold,                                   !- Climate Zone Value 1
  ASHRAE,                                 !- Climate Zone Institution Name 2
  ANSI/ASHRAE Standard 169,               !- Climate Zone Document Name 2
  2006,                                   !- Climate Zone Document Year 2
  ,                                       !- Climate Zone Value 2
  CEC,                                    !- Climate Zone Institution Name 3
  California Climate Zone Descriptions,   !- Climate Zone Document Name 3
  1995,                                   !- Climate Zone Document Year 3
  ;                                       !- Climate Zone Value 3

OS:Site:WaterMainsTemperature,
  {10f8eea9-38e5-4f27-b866-7502e561c9ea}, !- Handle
  Correlation,                            !- Calculation Method
  ,                                       !- Temperature Schedule Name
  9.79771689497715,                       !- Annual Average Outdoor Air Temperature {C}
  27.3397849462366;                       !- Maximum Difference In Monthly Average Outdoor Air Temperatures {deltaC}

OS:RunPeriodControl:DaylightSavingTime,
  {72b13279-db78-4cef-bef2-db04f0383534}, !- Handle
  3/10,                                   !- Start Date
  11/3;                                   !- End Date

OS:Site:GroundTemperature:Deep,
  {a16205fd-6ad8-4a16-85ff-cd7337c8707f}, !- Handle
  9.79771689497715,                       !- January Deep Ground Temperature {C}
  9.79771689497715,                       !- February Deep Ground Temperature {C}
  9.79771689497715,                       !- March Deep Ground Temperature {C}
  9.79771689497715,                       !- April Deep Ground Temperature {C}
  9.79771689497715,                       !- May Deep Ground Temperature {C}
  9.79771689497715,                       !- June Deep Ground Temperature {C}
  9.79771689497715,                       !- July Deep Ground Temperature {C}
  9.79771689497715,                       !- August Deep Ground Temperature {C}
  9.79771689497715,                       !- September Deep Ground Temperature {C}
  9.79771689497715,                       !- October Deep Ground Temperature {C}
  9.79771689497715,                       !- November Deep Ground Temperature {C}
  9.79771689497715;                       !- December Deep Ground Temperature {C}

OS:ThermalZone,
  {0d8c95df-2a80-4bb0-b531-022818cae8c3}, !- Handle
  living zone,                            !- Name
  ,                                       !- Multiplier
  ,                                       !- Ceiling Height {m}
  ,                                       !- Volume {m3}
  ,                                       !- Floor Area {m2}
  ,                                       !- Zone Inside Convection Algorithm
  ,                                       !- Zone Outside Convection Algorithm
  ,                                       !- Zone Conditioning Equipment List Name
  {46a3c5e8-21fc-43f7-9c7b-29956db9d7b4}, !- Zone Air Inlet Port List
  {af488209-d19e-4a49-b172-fd9fc31390a1}, !- Zone Air Exhaust Port List
  {ac4aa6b0-9332-4ba6-856c-11f81013fd39}, !- Zone Air Node Name
  {2f003a0b-a20d-400a-a6fe-e76132da5915}, !- Zone Return Air Port List
  ,                                       !- Primary Daylighting Control Name
  ,                                       !- Fraction of Zone Controlled by Primary Daylighting Control
  ,                                       !- Secondary Daylighting Control Name
  ,                                       !- Fraction of Zone Controlled by Secondary Daylighting Control
  ,                                       !- Illuminance Map Name
  ,                                       !- Group Rendering Name
  {6c1d952d-3da1-4d49-b6e9-f39911d1d66c}, !- Thermostat Name
  No;                                     !- Use Ideal Air Loads

OS:Node,
  {025c12b2-db0f-4a53-b5a1-fc40aeefb39b}, !- Handle
  Node 1,                                 !- Name
  {ac4aa6b0-9332-4ba6-856c-11f81013fd39}, !- Inlet Port
  ;                                       !- Outlet Port

OS:Connection,
  {ac4aa6b0-9332-4ba6-856c-11f81013fd39}, !- Handle
  {0d8c95df-2a80-4bb0-b531-022818cae8c3}, !- Source Object
  11,                                     !- Outlet Port
  {025c12b2-db0f-4a53-b5a1-fc40aeefb39b}, !- Target Object
  2;                                      !- Inlet Port

OS:PortList,
  {46a3c5e8-21fc-43f7-9c7b-29956db9d7b4}, !- Handle
  {0d8c95df-2a80-4bb0-b531-022818cae8c3}, !- HVAC Component
  {b5ef6067-04e0-4b3f-bbe8-c69188a1147d}; !- Port 1

OS:PortList,
  {af488209-d19e-4a49-b172-fd9fc31390a1}, !- Handle
  {0d8c95df-2a80-4bb0-b531-022818cae8c3}, !- HVAC Component
  {2823314c-d7a6-42e3-b96b-7d0a39715b6c}; !- Port 1

OS:PortList,
  {2f003a0b-a20d-400a-a6fe-e76132da5915}, !- Handle
  {0d8c95df-2a80-4bb0-b531-022818cae8c3}; !- HVAC Component

OS:Sizing:Zone,
  {89740a4f-6462-4c31-9684-9dcfa12f0081}, !- Handle
  {0d8c95df-2a80-4bb0-b531-022818cae8c3}, !- Zone or ZoneList Name
  SupplyAirTemperature,                   !- Zone Cooling Design Supply Air Temperature Input Method
  14,                                     !- Zone Cooling Design Supply Air Temperature {C}
  11.11,                                  !- Zone Cooling Design Supply Air Temperature Difference {deltaC}
  SupplyAirTemperature,                   !- Zone Heating Design Supply Air Temperature Input Method
  40,                                     !- Zone Heating Design Supply Air Temperature {C}
  11.11,                                  !- Zone Heating Design Supply Air Temperature Difference {deltaC}
  0.0085,                                 !- Zone Cooling Design Supply Air Humidity Ratio {kg-H2O/kg-air}
  0.008,                                  !- Zone Heating Design Supply Air Humidity Ratio {kg-H2O/kg-air}
  ,                                       !- Zone Heating Sizing Factor
  ,                                       !- Zone Cooling Sizing Factor
  DesignDay,                              !- Cooling Design Air Flow Method
  ,                                       !- Cooling Design Air Flow Rate {m3/s}
  ,                                       !- Cooling Minimum Air Flow per Zone Floor Area {m3/s-m2}
  ,                                       !- Cooling Minimum Air Flow {m3/s}
  ,                                       !- Cooling Minimum Air Flow Fraction
  DesignDay,                              !- Heating Design Air Flow Method
  ,                                       !- Heating Design Air Flow Rate {m3/s}
  ,                                       !- Heating Maximum Air Flow per Zone Floor Area {m3/s-m2}
  ,                                       !- Heating Maximum Air Flow {m3/s}
  ,                                       !- Heating Maximum Air Flow Fraction
  No,                                     !- Account for Dedicated Outdoor Air System
  NeutralSupplyAir,                       !- Dedicated Outdoor Air System Control Strategy
  autosize,                               !- Dedicated Outdoor Air Low Setpoint Temperature for Design {C}
  autosize;                               !- Dedicated Outdoor Air High Setpoint Temperature for Design {C}

OS:ZoneHVAC:EquipmentList,
  {dc32260b-f216-44e9-b193-53f5471aad59}, !- Handle
  Zone HVAC Equipment List 1,             !- Name
  {0d8c95df-2a80-4bb0-b531-022818cae8c3}, !- Thermal Zone
  SequentialLoad,                         !- Load Distribution Scheme
  {4e8f0e5c-b80d-4f1a-afda-cf30f7a81a1b}, !- Zone Equipment 1
  1,                                      !- Zone Equipment Cooling Sequence 1
  1,                                      !- Zone Equipment Heating or No-Load Sequence 1
  ,                                       !- Zone Equipment Sequential Cooling Fraction Schedule Name 1
  ,                                       !- Zone Equipment Sequential Heating Fraction Schedule Name 1
  {45797f12-fb43-467f-b5c6-898f9fdd6f4c}, !- Zone Equipment 2
  2,                                      !- Zone Equipment Cooling Sequence 2
  2,                                      !- Zone Equipment Heating or No-Load Sequence 2
  ,                                       !- Zone Equipment Sequential Cooling Fraction Schedule Name 2
  ;                                       !- Zone Equipment Sequential Heating Fraction Schedule Name 2

OS:Space,
  {d0ebf251-f2e6-4286-91d9-b8e84a4f6804}, !- Handle
  living space,                           !- Name
  {31968c13-88cd-4452-a83f-5a1c4ae11606}, !- Space Type Name
  ,                                       !- Default Construction Set Name
  ,                                       !- Default Schedule Set Name
  -0,                                     !- Direction of Relative North {deg}
  0,                                      !- X Origin {m}
  0,                                      !- Y Origin {m}
  0,                                      !- Z Origin {m}
  ,                                       !- Building Story Name
  {0d8c95df-2a80-4bb0-b531-022818cae8c3}, !- Thermal Zone Name
  ,                                       !- Part of Total Floor Area
  ,                                       !- Design Specification Outdoor Air Object Name
  {b8601c3a-ab43-4e57-a934-e395a592fe21}; !- Building Unit Name

OS:Surface,
  {069a5cc1-a55a-4e1a-929a-7413a513227a}, !- Handle
  Surface 1,                              !- Name
  Floor,                                  !- Surface Type
  {6326bc1e-1b82-4855-bc49-bf4d75a6f02d}, !- Construction Name
  {d0ebf251-f2e6-4286-91d9-b8e84a4f6804}, !- Space Name
  Surface,                                !- Outside Boundary Condition
  {7b0749ae-93b2-487c-81c5-6e12ce8573de}, !- Outside Boundary Condition Object
  NoSun,                                  !- Sun Exposure
  NoWind,                                 !- Wind Exposure
  ,                                       !- View Factor to Ground
  ,                                       !- Number of Vertices
  0, 0, 0,                                !- X,Y,Z Vertex 1 {m}
  0, 5.3921434204467, 0,                  !- X,Y,Z Vertex 2 {m}
  9.70585815680407, 5.3921434204467, 0,   !- X,Y,Z Vertex 3 {m}
  9.70585815680407, 0, 0;                 !- X,Y,Z Vertex 4 {m}

OS:Surface,
  {6d3c970c-5b9b-4acd-ad99-c9b9e7065d0c}, !- Handle
  Surface 2,                              !- Name
  Wall,                                   !- Surface Type
  {05dbf927-9b31-401f-994f-ec22924a85c3}, !- Construction Name
  {d0ebf251-f2e6-4286-91d9-b8e84a4f6804}, !- Space Name
  Outdoors,                               !- Outside Boundary Condition
  ,                                       !- Outside Boundary Condition Object
  SunExposed,                             !- Sun Exposure
  WindExposed,                            !- Wind Exposure
  ,                                       !- View Factor to Ground
  ,                                       !- Number of Vertices
  0, 5.3921434204467, 2.4384,             !- X,Y,Z Vertex 1 {m}
  0, 5.3921434204467, 0,                  !- X,Y,Z Vertex 2 {m}
  0, 0, 0,                                !- X,Y,Z Vertex 3 {m}
  0, 0, 2.4384;                           !- X,Y,Z Vertex 4 {m}

OS:Surface,
  {34b813f9-5647-40e6-ae49-4250d43ad6a9}, !- Handle
  Surface 3,                              !- Name
  Wall,                                   !- Surface Type
  {05dbf927-9b31-401f-994f-ec22924a85c3}, !- Construction Name
  {d0ebf251-f2e6-4286-91d9-b8e84a4f6804}, !- Space Name
  Outdoors,                               !- Outside Boundary Condition
  ,                                       !- Outside Boundary Condition Object
  SunExposed,                             !- Sun Exposure
  WindExposed,                            !- Wind Exposure
  ,                                       !- View Factor to Ground
  ,                                       !- Number of Vertices
  9.70585815680407, 5.3921434204467, 2.4384, !- X,Y,Z Vertex 1 {m}
  9.70585815680407, 5.3921434204467, 0,   !- X,Y,Z Vertex 2 {m}
  0, 5.3921434204467, 0,                  !- X,Y,Z Vertex 3 {m}
  0, 5.3921434204467, 2.4384;             !- X,Y,Z Vertex 4 {m}

OS:Surface,
  {8050f22f-4181-4d90-a86a-609bb9c5e055}, !- Handle
  Surface 4,                              !- Name
  Wall,                                   !- Surface Type
  {05dbf927-9b31-401f-994f-ec22924a85c3}, !- Construction Name
  {d0ebf251-f2e6-4286-91d9-b8e84a4f6804}, !- Space Name
  Outdoors,                               !- Outside Boundary Condition
  ,                                       !- Outside Boundary Condition Object
  SunExposed,                             !- Sun Exposure
  WindExposed,                            !- Wind Exposure
  ,                                       !- View Factor to Ground
  ,                                       !- Number of Vertices
  9.70585815680407, 0, 2.4384,            !- X,Y,Z Vertex 1 {m}
  9.70585815680407, 0, 0,                 !- X,Y,Z Vertex 2 {m}
  9.70585815680407, 5.3921434204467, 0,   !- X,Y,Z Vertex 3 {m}
  9.70585815680407, 5.3921434204467, 2.4384; !- X,Y,Z Vertex 4 {m}

OS:Surface,
  {d94ff9aa-8015-4b2c-827c-ca2448383c3a}, !- Handle
  Surface 5,                              !- Name
  Wall,                                   !- Surface Type
  {05dbf927-9b31-401f-994f-ec22924a85c3}, !- Construction Name
  {d0ebf251-f2e6-4286-91d9-b8e84a4f6804}, !- Space Name
  Outdoors,                               !- Outside Boundary Condition
  ,                                       !- Outside Boundary Condition Object
  SunExposed,                             !- Sun Exposure
  WindExposed,                            !- Wind Exposure
  ,                                       !- View Factor to Ground
  ,                                       !- Number of Vertices
  1.04865714285714, 0, 2.17886500841757e-07, !- X,Y,Z Vertex 1 {m}
  9.70585815680407, 0, 0,                 !- X,Y,Z Vertex 2 {m}
  9.70585815680407, 0, 2.4384,            !- X,Y,Z Vertex 3 {m}
  1.04865714285714, 0, 2.4383997821135;   !- X,Y,Z Vertex 4 {m}

OS:Surface,
  {49cf86f6-907e-4cd5-89fb-52a5248eaead}, !- Handle
  Surface 6,                              !- Name
  RoofCeiling,                            !- Surface Type
  {3e5fd129-cfa6-4d67-9491-a2584546e33b}, !- Construction Name
  {d0ebf251-f2e6-4286-91d9-b8e84a4f6804}, !- Space Name
  Surface,                                !- Outside Boundary Condition
  {88fd16ca-821f-40e1-b9b4-ebd4b1767a06}, !- Outside Boundary Condition Object
  NoSun,                                  !- Sun Exposure
  NoWind,                                 !- Wind Exposure
  ,                                       !- View Factor to Ground
  ,                                       !- Number of Vertices
  9.70585815680407, 0, 2.4384,            !- X,Y,Z Vertex 1 {m}
  9.70585815680407, 5.3921434204467, 2.4384, !- X,Y,Z Vertex 2 {m}
  0, 5.3921434204467, 2.4384,             !- X,Y,Z Vertex 3 {m}
  0, 0, 2.4384;                           !- X,Y,Z Vertex 4 {m}

OS:SpaceType,
  {31968c13-88cd-4452-a83f-5a1c4ae11606}, !- Handle
  Space Type 1,                           !- Name
  ,                                       !- Default Construction Set Name
  ,                                       !- Default Schedule Set Name
  ,                                       !- Group Rendering Name
  ,                                       !- Design Specification Outdoor Air Object Name
  ,                                       !- Standards Template
  ,                                       !- Standards Building Type
  living;                                 !- Standards Space Type

OS:Space,
  {a784119d-a885-457c-ab8f-90cb66603c95}, !- Handle
  living space|story 2,                   !- Name
  {31968c13-88cd-4452-a83f-5a1c4ae11606}, !- Space Type Name
  ,                                       !- Default Construction Set Name
  ,                                       !- Default Schedule Set Name
  -0,                                     !- Direction of Relative North {deg}
  0,                                      !- X Origin {m}
  0,                                      !- Y Origin {m}
  2.4384,                                 !- Z Origin {m}
  ,                                       !- Building Story Name
  {0d8c95df-2a80-4bb0-b531-022818cae8c3}, !- Thermal Zone Name
  ,                                       !- Part of Total Floor Area
  ,                                       !- Design Specification Outdoor Air Object Name
  {b8601c3a-ab43-4e57-a934-e395a592fe21}; !- Building Unit Name

OS:Surface,
  {88fd16ca-821f-40e1-b9b4-ebd4b1767a06}, !- Handle
  Surface 7,                              !- Name
  Floor,                                  !- Surface Type
  {fb74501d-c9f2-4e11-a313-36068e6e6381}, !- Construction Name
  {a784119d-a885-457c-ab8f-90cb66603c95}, !- Space Name
  Surface,                                !- Outside Boundary Condition
  {49cf86f6-907e-4cd5-89fb-52a5248eaead}, !- Outside Boundary Condition Object
  NoSun,                                  !- Sun Exposure
  NoWind,                                 !- Wind Exposure
  ,                                       !- View Factor to Ground
  ,                                       !- Number of Vertices
  0, 0, 0,                                !- X,Y,Z Vertex 1 {m}
  0, 5.3921434204467, 0,                  !- X,Y,Z Vertex 2 {m}
  9.70585815680407, 5.3921434204467, 0,   !- X,Y,Z Vertex 3 {m}
  9.70585815680407, 0, 0;                 !- X,Y,Z Vertex 4 {m}

OS:Surface,
  {5bdba2ed-48aa-446f-9a9b-245413d18b02}, !- Handle
  Surface 8,                              !- Name
  Wall,                                   !- Surface Type
  {05dbf927-9b31-401f-994f-ec22924a85c3}, !- Construction Name
  {a784119d-a885-457c-ab8f-90cb66603c95}, !- Space Name
  Outdoors,                               !- Outside Boundary Condition
  ,                                       !- Outside Boundary Condition Object
  SunExposed,                             !- Sun Exposure
  WindExposed,                            !- Wind Exposure
  ,                                       !- View Factor to Ground
  ,                                       !- Number of Vertices
  0, 5.3921434204467, 2.4384,             !- X,Y,Z Vertex 1 {m}
  0, 5.3921434204467, 0,                  !- X,Y,Z Vertex 2 {m}
  0, 0, 0,                                !- X,Y,Z Vertex 3 {m}
  0, 0, 2.4384;                           !- X,Y,Z Vertex 4 {m}

OS:Surface,
  {8f99155d-53b0-4afc-b6fe-60d227f84bf7}, !- Handle
  Surface 9,                              !- Name
  Wall,                                   !- Surface Type
  {05dbf927-9b31-401f-994f-ec22924a85c3}, !- Construction Name
  {a784119d-a885-457c-ab8f-90cb66603c95}, !- Space Name
  Outdoors,                               !- Outside Boundary Condition
  ,                                       !- Outside Boundary Condition Object
  SunExposed,                             !- Sun Exposure
  WindExposed,                            !- Wind Exposure
  ,                                       !- View Factor to Ground
  ,                                       !- Number of Vertices
  9.70585815680407, 5.3921434204467, 2.4384, !- X,Y,Z Vertex 1 {m}
  9.70585815680407, 5.3921434204467, 0,   !- X,Y,Z Vertex 2 {m}
  0, 5.3921434204467, 0,                  !- X,Y,Z Vertex 3 {m}
  0, 5.3921434204467, 2.4384;             !- X,Y,Z Vertex 4 {m}

OS:Surface,
  {5c7bb678-cb20-4cab-a9ce-c00a0f887370}, !- Handle
  Surface 10,                             !- Name
  Wall,                                   !- Surface Type
  {05dbf927-9b31-401f-994f-ec22924a85c3}, !- Construction Name
  {a784119d-a885-457c-ab8f-90cb66603c95}, !- Space Name
  Outdoors,                               !- Outside Boundary Condition
  ,                                       !- Outside Boundary Condition Object
  SunExposed,                             !- Sun Exposure
  WindExposed,                            !- Wind Exposure
  ,                                       !- View Factor to Ground
  ,                                       !- Number of Vertices
  9.70585815680407, 0, 2.4384,            !- X,Y,Z Vertex 1 {m}
  9.70585815680407, 0, 0,                 !- X,Y,Z Vertex 2 {m}
  9.70585815680407, 5.3921434204467, 0,   !- X,Y,Z Vertex 3 {m}
  9.70585815680407, 5.3921434204467, 2.4384; !- X,Y,Z Vertex 4 {m}

OS:Surface,
  {12e4d8c5-6761-44d3-8e20-75646bb2cd0f}, !- Handle
  Surface 11,                             !- Name
  Wall,                                   !- Surface Type
  {05dbf927-9b31-401f-994f-ec22924a85c3}, !- Construction Name
  {a784119d-a885-457c-ab8f-90cb66603c95}, !- Space Name
  Outdoors,                               !- Outside Boundary Condition
  ,                                       !- Outside Boundary Condition Object
  SunExposed,                             !- Sun Exposure
  WindExposed,                            !- Wind Exposure
  ,                                       !- View Factor to Ground
  ,                                       !- Number of Vertices
  0, 0, 2.4384,                           !- X,Y,Z Vertex 1 {m}
  0, 0, 0,                                !- X,Y,Z Vertex 2 {m}
  9.70585815680407, 0, 0,                 !- X,Y,Z Vertex 3 {m}
  9.70585815680407, 0, 2.4384;            !- X,Y,Z Vertex 4 {m}

OS:Surface,
  {0205356d-e4dc-4067-9c22-876b4a831771}, !- Handle
  Surface 12,                             !- Name
  RoofCeiling,                            !- Surface Type
  {3e5fd129-cfa6-4d67-9491-a2584546e33b}, !- Construction Name
  {a784119d-a885-457c-ab8f-90cb66603c95}, !- Space Name
  Surface,                                !- Outside Boundary Condition
  {f38e46ea-1cff-4dbf-8a09-03e607dff01e}, !- Outside Boundary Condition Object
  NoSun,                                  !- Sun Exposure
  NoWind,                                 !- Wind Exposure
  ,                                       !- View Factor to Ground
  ,                                       !- Number of Vertices
  9.70585815680407, 0, 2.4384,            !- X,Y,Z Vertex 1 {m}
  9.70585815680407, 5.3921434204467, 2.4384, !- X,Y,Z Vertex 2 {m}
  0, 5.3921434204467, 2.4384,             !- X,Y,Z Vertex 3 {m}
  0, 0, 2.4384;                           !- X,Y,Z Vertex 4 {m}

OS:Space,
  {70a44cbe-18d0-4062-a963-f2891d7a1d26}, !- Handle
  living space|story 3,                   !- Name
  {31968c13-88cd-4452-a83f-5a1c4ae11606}, !- Space Type Name
  ,                                       !- Default Construction Set Name
  ,                                       !- Default Schedule Set Name
  -0,                                     !- Direction of Relative North {deg}
  0,                                      !- X Origin {m}