
OS:Version,
  {5d53b2fb-390b-40a1-a1ba-6bf0c754cec9}, !- Handle
  3.2.1;                                  !- Version Identifier

OS:Building,
  {0526375f-e59e-4d4e-9cf4-38a7df20c5ac}, !- Handle
  Building 1,                             !- Name
  ,                                       !- Building Sector Type
  315,                                    !- North Axis {deg}
  ,                                       !- Nominal Floor to Floor Height {m}
  ,                                       !- Space Type Name
  ,                                       !- Default Construction Set Name
  ,                                       !- Default Schedule Set Name
  3,                                      !- Standards Number of Stories
  2,                                      !- Standards Number of Above Ground Stories
  ,                                       !- Standards Template
  singlefamilydetached,                   !- Standards Building Type
  1;                                      !- Standards Number of Living Units

OS:Facility,
  {5ee6b644-516c-4804-b548-4404ba2b3c5a}; !- Handle

OS:Site,
  {78a7ab45-fcbf-467d-953e-f6808322926b}, !- Handle
  Chicopee-Westover Metro AP_MA_USA,      !- Name
  42.2,                                   !- Latitude {deg}
  -72.533,                                !- Longitude {deg}
  -5,                                     !- Time Zone {hr}
  75,                                     !- Elevation {m}
  Suburbs;                                !- Terrain

OS:SimulationControl,
  {84eea9dc-f092-40d7-b6d0-79ecc6a7af0f}, !- Handle
  ,                                       !- Do Zone Sizing Calculation
  ,                                       !- Do System Sizing Calculation
  ,                                       !- Do Plant Sizing Calculation
  No;                                     !- Run Simulation for Sizing Periods

OS:Sizing:Parameters,
  {1c054c2f-1edd-461f-87e1-69754ed4799a}, !- Handle
  1.25,                                   !- Heating Sizing Factor
  1.15;                                   !- Cooling Sizing Factor

OS:Timestep,
  {8c088992-7b19-4174-ae61-43d6741a43fe}, !- Handle
  4;                                      !- Number of Timesteps per Hour

OS:ShadowCalculation,
  {5a0a3af6-60e2-433a-8fea-a57f52456cc8}, !- Handle
  PolygonClipping,                        !- Shading Calculation Method
  ,                                       !- Shading Calculation Update Frequency Method
  20,                                     !- Shading Calculation Update Frequency
  200,                                    !- Maximum Figures in Shadow Overlap Calculations
  ,                                       !- Polygon Clipping Algorithm
  512,                                    !- Pixel Counting Resolution
  DetailedSkyDiffuseModeling,             !- Sky Diffuse Modeling Algorithm
  No,                                     !- Output External Shading Calculation Results
  No,                                     !- Disable Self-Shading Within Shading Zone Groups
  No;                                     !- Disable Self-Shading From Shading Zone Groups to Other Zones

OS:HeatBalanceAlgorithm,
  {938930bd-f5f2-4c49-8ca8-695112fa5ba2}, !- Handle
  ConductionTransferFunction,             !- Algorithm
  200;                                    !- Surface Temperature Upper Limit {C}

OS:RunPeriod,
  {54e0bdfa-03aa-4319-8ea9-5fb4f7dae823}, !- Handle
  Run Period 1,                           !- Name
  1,                                      !- Begin Month
  1,                                      !- Begin Day of Month
  12,                                     !- End Month
  31,                                     !- End Day of Month
  ,                                       !- Use Weather File Holidays and Special Days
  ,                                       !- Use Weather File Daylight Saving Period
  ,                                       !- Apply Weekend Holiday Rule
  ,                                       !- Use Weather File Rain Indicators
  ,                                       !- Use Weather File Snow Indicators
  ;                                       !- Number of Times Runperiod to be Repeated

OS:LifeCycleCost:Parameters,
  {aa8a73b5-a242-48ea-960e-89795d344c10}, !- Handle
  ,                                       !- Analysis Type
  ,                                       !- Discounting Convention
  ,                                       !- Inflation Approach
  ,                                       !- Real Discount Rate
  ,                                       !- Nominal Discount Rate
  ,                                       !- Inflation
  ,                                       !- Base Date Month
  ,                                       !- Base Date Year
  ,                                       !- Service Date Month
  ,                                       !- Service Date Year
  ;                                       !- Length of Study Period in Years

OS:SurfaceConvectionAlgorithm:Outside,
  {7e29594f-754f-416c-a236-7cb9284de6ef}, !- Handle
  DOE-2;                                  !- Algorithm

OS:SurfaceConvectionAlgorithm:Inside,
  {fae1e617-6a53-4b89-8b52-6e493f70a109}, !- Handle
  TARP;                                   !- Algorithm

OS:ZoneCapacitanceMultiplier:ResearchSpecial,
  {7d6735f8-1848-475e-841e-a5a0886b1551}, !- Handle
  ,                                       !- Temperature Capacity Multiplier
  15,                                     !- Humidity Capacity Multiplier
  ;                                       !- Carbon Dioxide Capacity Multiplier

OS:YearDescription,
  {15af6705-f3f2-4c26-b846-64634dab3775}, !- Handle
  2018,                                   !- Calendar Year
  ,                                       !- Day of Week for Start Day
  ;                                       !- Is Leap Year

OS:AdditionalProperties,
  {80e26804-8121-4e31-aced-ea55fdeb7a1e}, !- Handle
  {0526375f-e59e-4d4e-9cf4-38a7df20c5ac}, !- Object Name
  Building ID,                            !- Feature Name 1
  Integer,                                !- Feature Data Type 1
  15387,                                  !- Feature Value 1
  num_occupants,                          !- Feature Name 2
  Integer,                                !- Feature Data Type 2
  1,                                      !- Feature Value 2
  Schedules Path,                         !- Feature Name 3
  String,                                 !- Feature Data Type 3
  /var/simdata/openstudio/run/schedules.csv, !- Feature Value 3
  Total Units Modeled,                    !- Feature Name 4
  Integer,                                !- Feature Data Type 4
  1,                                      !- Feature Value 4
  has_water_heater_flue,                  !- Feature Name 5
  Boolean,                                !- Feature Data Type 5
  true,                                   !- Feature Value 5
  has_hvac_flue,                          !- Feature Name 6
  Boolean,                                !- Feature Data Type 6
  true,                                   !- Feature Value 6
  has_fireplace_chimney,                  !- Feature Name 7
  Boolean,                                !- Feature Data Type 7
  false;                                  !- Feature Value 7

OS:WeatherFile,
  {fcb2d238-9b0f-45df-a9b1-f641f6d321f6}, !- Handle
  Chicopee-Westover Metro AP,             !- City
  MA,                                     !- State Province Region
  USA,                                    !- Country
  TMY3,                                   !- Data Source
  744910,                                 !- WMO Number
  42.2,                                   !- Latitude {deg}
  -72.533,                                !- Longitude {deg}
  -5,                                     !- Time Zone {hr}
  75,                                     !- Elevation {m}
  /weather/G2500130.epw,                  !- Url
  09324857;                               !- Checksum

OS:AdditionalProperties,
  {b6ce34db-4467-4b38-9abf-65dffb54d254}, !- Handle
  {fcb2d238-9b0f-45df-a9b1-f641f6d321f6}, !- Object Name
  EPWHeaderCity,                          !- Feature Name 1
  String,                                 !- Feature Data Type 1
  Chicopee-Westover Metro AP,             !- Feature Value 1
  EPWHeaderState,                         !- Feature Name 2
  String,                                 !- Feature Data Type 2
  MA,                                     !- Feature Value 2
  EPWHeaderCountry,                       !- Feature Name 3
  String,                                 !- Feature Data Type 3
  USA,                                    !- Feature Value 3
  EPWHeaderDataSource,                    !- Feature Name 4
  String,                                 !- Feature Data Type 4
  TMY3,                                   !- Feature Value 4
  EPWHeaderStation,                       !- Feature Name 5
  String,                                 !- Feature Data Type 5
  744910,                                 !- Feature Value 5
  EPWHeaderLatitude,                      !- Feature Name 6
  Double,                                 !- Feature Data Type 6
  42.200000000000003,                     !- Feature Value 6
  EPWHeaderLongitude,                     !- Feature Name 7
  Double,                                 !- Feature Data Type 7
  -72.533000000000001,                    !- Feature Value 7
  EPWHeaderTimezone,                      !- Feature Name 8
  Double,                                 !- Feature Data Type 8
  -5,                                     !- Feature Value 8
  EPWHeaderAltitude,                      !- Feature Name 9
  Double,                                 !- Feature Data Type 9
  246.06299212598424,                     !- Feature Value 9
  EPWHeaderLocalPressure,                 !- Feature Name 10
  Double,                                 !- Feature Data Type 10
  0.99098575600540362,                    !- Feature Value 10
  EPWHeaderRecordsPerHour,                !- Feature Name 11
  Double,                                 !- Feature Data Type 11
  1,                                      !- Feature Value 11
  EPWDataAnnualAvgDrybulb,                !- Feature Name 12
  Double,                                 !- Feature Data Type 12
  49.408897260274038,                     !- Feature Value 12
  EPWDataAnnualMinDrybulb,                !- Feature Name 13
  Double,                                 !- Feature Data Type 13
  -7.6000000000000014,                    !- Feature Value 13
  EPWDataAnnualMaxDrybulb,                !- Feature Name 14
  Double,                                 !- Feature Data Type 14
  100.94,                                 !- Feature Value 14
  EPWDataCDD50F,                          !- Feature Name 15
  Double,                                 !- Feature Data Type 15
  2522.1225000000004,                     !- Feature Value 15
  EPWDataCDD65F,                          !- Feature Name 16
  Double,                                 !- Feature Data Type 16
  503.7600000000001,                      !- Feature Value 16
  EPWDataHDD50F,                          !- Feature Name 17
  Double,                                 !- Feature Data Type 17
  2737.875,                               !- Feature Value 17
  EPWDataHDD65F,                          !- Feature Name 18
  Double,                                 !- Feature Data Type 18
  6194.5125000000007,                     !- Feature Value 18
  EPWDataAnnualAvgWindspeed,              !- Feature Name 19
  Double,                                 !- Feature Data Type 19
  3.0024657534245538,                     !- Feature Value 19
  EPWDataMonthlyAvgDrybulbs,              !- Feature Name 20
  String,                                 !- Feature Data Type 20
  31.358145161290327&#4429.968571428571426&#4435.64064516129032&#4445.0565&#4455.65475806451613&#4465.66550000000001&#4471.94306451612903&#4468.35685483870967&#4459.953250000000004&#4451.93233870967743&#4441.29174999999999&#4434.66637096774193, !- Feature Value 20
  EPWDataGroundMonthlyTemps,              !- Feature Name 21
  String,                                 !- Feature Data Type 21
  41.85999941936842&#4438.64968774878366&#4438.39259447734065&#4439.916051400403944&#4446.0318820095701&#4452.11922248528674&#4457.39662134439385&#4460.73972372665838&#4461.02373863638792&#4458.30468674723744&#4453.161864657476315&#4447.26125899338109, !- Feature Value 21
  EPWDataWSF,                             !- Feature Name 22
  Double,                                 !- Feature Data Type 22
  0.48999999999999999,                    !- Feature Value 22
  EPWDataMonthlyAvgDailyHighDrybulbs,     !- Feature Name 23
  String,                                 !- Feature Data Type 23
  37.81806451612903&#4438.39&#4447.05032258064516&#4455.64&#4466.96064516129033&#4474.9&#4484.26967741935482&#4478.84064516129033&#4471.48&#4464.80645161290323&#4451.367999999999995&#4441.01741935483871, !- Feature Value 23
  EPWDataMonthlyAvgDailyLowDrybulbs,      !- Feature Name 24
  String,                                 !- Feature Data Type 24
  23.998709677419356&#4420.299999999999997&#4423.42387096774194&#4433.944&#4442.88129032258065&#4455.97599999999999&#4458.70967741935483&#4457.13032258064516&#4447.126000000000005&#4438.12&#4429.798000000000002&#4428.36516129032258, !- Feature Value 24
  EPWDesignHeatingDrybulb,                !- Feature Name 25
  Double,                                 !- Feature Data Type 25
  5.5399999999999991,                     !- Feature Value 25
  EPWDesignHeatingWindspeed,              !- Feature Name 26
  Double,                                 !- Feature Data Type 26
  10.4,                                   !- Feature Value 26
  EPWDesignCoolingDrybulb,                !- Feature Name 27
  Double,                                 !- Feature Data Type 27
  87.620000000000005,                     !- Feature Value 27
  EPWDesignCoolingWetbulb,                !- Feature Name 28
  Double,                                 !- Feature Data Type 28
  71.420000000000002,                     !- Feature Value 28
  EPWDesignCoolingHumidityRatio,          !- Feature Name 29
  Double,                                 !- Feature Data Type 29
  0.01280097215777066,                    !- Feature Value 29
  EPWDesignCoolingWindspeed,              !- Feature Name 30
  Double,                                 !- Feature Data Type 30
  4.2000000000000002,                     !- Feature Value 30
  EPWDesignDailyTemperatureRange,         !- Feature Name 31
  Double,                                 !- Feature Data Type 31
  22.32,                                  !- Feature Value 31
  EPWDesignDehumidDrybulb,                !- Feature Name 32
  Double,                                 !- Feature Data Type 32
  77.359999999999999,                     !- Feature Value 32
  EPWDesignDehumidHumidityRatio,          !- Feature Name 33
  Double,                                 !- Feature Data Type 33
  0.016100632516306224,                   !- Feature Value 33
  EPWDesignCoolingDirectNormal,           !- Feature Name 34
  Double,                                 !- Feature Data Type 34
  811,                                    !- Feature Value 34
  EPWDesignCoolingDiffuseHorizontal,      !- Feature Name 35
  Double,                                 !- Feature Data Type 35
  180;                                    !- Feature Value 35

OS:ClimateZones,
  {dfa5f518-8126-43f3-8c5f-534f97bd2205}, !- Handle
  Building America,                       !- Climate Zone Institution Name 1
  ,                                       !- Climate Zone Document Name 1
  0,                                      !- Climate Zone Document Year 1
  Cold;                                   !- Climate Zone Value 1

OS:Site:WaterMainsTemperature,
  {aad0078e-75f0-4f34-be7a-e017360dd68d}, !- Handle
  Correlation,                            !- Calculation Method
  ,                                       !- Temperature Schedule Name
  9.67160958904113,                       !- Annual Average Outdoor Air Temperature {C}
  23.3191628264209;                       !- Maximum Difference In Monthly Average Outdoor Air Temperatures {deltaC}

OS:RunPeriodControl:DaylightSavingTime,
  {ac73d28f-2eed-43fd-a26e-58e4a7f24bbf}, !- Handle
  3/10,                                   !- Start Date
  11/3;                                   !- End Date

OS:Site:GroundTemperature:Deep,
  {f7dea93f-4a9c-4f1e-821e-db4821f91170}, !- Handle
  9.67160958904113,                       !- January Deep Ground Temperature {C}
  9.67160958904113,                       !- February Deep Ground Temperature {C}
  9.67160958904113,                       !- March Deep Ground Temperature {C}
  9.67160958904113,                       !- April Deep Ground Temperature {C}
  9.67160958904113,                       !- May Deep Ground Temperature {C}
  9.67160958904113,                       !- June Deep Ground Temperature {C}
  9.67160958904113,                       !- July Deep Ground Temperature {C}
  9.67160958904113,                       !- August Deep Ground Temperature {C}
  9.67160958904113,                       !- September Deep Ground Temperature {C}
  9.67160958904113,                       !- October Deep Ground Temperature {C}
  9.67160958904113,                       !- November Deep Ground Temperature {C}
  9.67160958904113;                       !- December Deep Ground Temperature {C}

OS:ThermalZone,
  {6b78abb9-6320-4485-ad32-ed69bf9d16ea}, !- Handle
  living zone,                            !- Name
  ,                                       !- Multiplier
  ,                                       !- Ceiling Height {m}
  ,                                       !- Volume {m3}
  ,                                       !- Floor Area {m2}
  ,                                       !- Zone Inside Convection Algorithm
  ,                                       !- Zone Outside Convection Algorithm
  ,                                       !- Zone Conditioning Equipment List Name
  {dae95605-88e7-4939-b735-29b2a76eba80}, !- Zone Air Inlet Port List
  {c6937762-3336-4503-8e36-ef2ceb19fa9d}, !- Zone Air Exhaust Port List
  {36f100bc-ee3d-4405-a41d-b1876205101b}, !- Zone Air Node Name
  {76008bba-70de-4624-bc5d-69ef2c03c7af}, !- Zone Return Air Port List
  ,                                       !- Primary Daylighting Control Name
  ,                                       !- Fraction of Zone Controlled by Primary Daylighting Control
  ,                                       !- Secondary Daylighting Control Name
  ,                                       !- Fraction of Zone Controlled by Secondary Daylighting Control
  ,                                       !- Illuminance Map Name
  ,                                       !- Group Rendering Name
  {fb46b039-c09a-4d4b-ba58-69e8c2cbcf5e}, !- Thermostat Name
  No;                                     !- Use Ideal Air Loads

OS:Node,
  {048d6b03-ef5d-46c0-97d5-ffc46443bdb7}, !- Handle
  Node 1,                                 !- Name
  {36f100bc-ee3d-4405-a41d-b1876205101b}, !- Inlet Port
  ;                                       !- Outlet Port

OS:Connection,
  {36f100bc-ee3d-4405-a41d-b1876205101b}, !- Handle
  {6b78abb9-6320-4485-ad32-ed69bf9d16ea}, !- Source Object
  11,                                     !- Outlet Port
  {048d6b03-ef5d-46c0-97d5-ffc46443bdb7}, !- Target Object
  2;                                      !- Inlet Port

OS:PortList,
  {dae95605-88e7-4939-b735-29b2a76eba80}, !- Handle
  {6b78abb9-6320-4485-ad32-ed69bf9d16ea}, !- HVAC Component
  {41936c95-60d2-4abb-830f-01c6af323357}, !- Port 1
  {cf005511-c027-48fa-b158-32f5d6db87c5}; !- Port 2

OS:PortList,
  {c6937762-3336-4503-8e36-ef2ceb19fa9d}, !- Handle
  {6b78abb9-6320-4485-ad32-ed69bf9d16ea}, !- HVAC Component
  {1e3db5d3-658a-4d7d-af8f-ea63d8a854f5}; !- Port 1

OS:PortList,
  {76008bba-70de-4624-bc5d-69ef2c03c7af}, !- Handle
  {6b78abb9-6320-4485-ad32-ed69bf9d16ea}, !- HVAC Component
  {16c3d5c2-02d4-4fbd-b742-82840d4128fe}; !- Port 1

OS:Sizing:Zone,
  {e9a4dcc9-afe4-4dff-a08a-93fa751a785a}, !- Handle
  {6b78abb9-6320-4485-ad32-ed69bf9d16ea}, !- Zone or ZoneList Name
  SupplyAirTemperature,                   !- Zone Cooling Design Supply Air Temperature Input Method
  14,                                     !- Zone Cooling Design Supply Air Temperature {C}
  11.11,                                  !- Zone Cooling Design Supply Air Temperature Difference {deltaC}
  SupplyAirTemperature,                   !- Zone Heating Design Supply Air Temperature Input Method
  40,                                     !- Zone Heating Design Supply Air Temperature {C}
  11.11,                                  !- Zone Heating Design Supply Air Temperature Difference {deltaC}
  0.0085,                                 !- Zone Cooling Design Supply Air Humidity Ratio {kg-H2O/kg-air}
  0.008,                                  !- Zone Heating Design Supply Air Humidity Ratio {kg-H2O/kg-air}
  ,                                       !- Zone Heating Sizing Factor
  ,                                       !- Zone Cooling Sizing Factor
  DesignDay,                              !- Cooling Design Air Flow Method
  ,                                       !- Cooling Design Air Flow Rate {m3/s}
  ,                                       !- Cooling Minimum Air Flow per Zone Floor Area {m3/s-m2}
  ,                                       !- Cooling Minimum Air Flow {m3/s}
  ,                                       !- Cooling Minimum Air Flow Fraction
  DesignDay,                              !- Heating Design Air Flow Method
  ,                                       !- Heating Design Air Flow Rate {m3/s}
  ,                                       !- Heating Maximum Air Flow per Zone Floor Area {m3/s-m2}
  ,                                       !- Heating Maximum Air Flow {m3/s}
  ,                                       !- Heating Maximum Air Flow Fraction
  No,                                     !- Account for Dedicated Outdoor Air System
  NeutralSupplyAir,                       !- Dedicated Outdoor Air System Control Strategy
  autosize,                               !- Dedicated Outdoor Air Low Setpoint Temperature for Design {C}
  autosize;                               !- Dedicated Outdoor Air High Setpoint Temperature for Design {C}

OS:ZoneHVAC:EquipmentList,
  {dc0d593a-777b-434a-a93d-892c823701b6}, !- Handle
  Zone HVAC Equipment List 1,             !- Name
  {6b78abb9-6320-4485-ad32-ed69bf9d16ea}, !- Thermal Zone
  SequentialLoad,                         !- Load Distribution Scheme
  {165016fc-228c-45ce-bc5f-8512348ad83f}, !- Zone Equipment 1
  1,                                      !- Zone Equipment Cooling Sequence 1
  1,                                      !- Zone Equipment Heating or No-Load Sequence 1
  ,                                       !- Zone Equipment Sequential Cooling Fraction Schedule Name 1
  ,                                       !- Zone Equipment Sequential Heating Fraction Schedule Name 1
  {db0f0c7b-783b-4f89-b7c6-1e03af8e50c3}, !- Zone Equipment 2
  2,                                      !- Zone Equipment Cooling Sequence 2
  2,                                      !- Zone Equipment Heating or No-Load Sequence 2
  ,                                       !- Zone Equipment Sequential Cooling Fraction Schedule Name 2
  ;                                       !- Zone Equipment Sequential Heating Fraction Schedule Name 2

OS:Space,
  {6f2d2722-4a17-4544-adf9-3fbec2c3d320}, !- Handle
  living space,                           !- Name
  {ad19c980-7507-4e42-b33b-d0921c3d0ca6}, !- Space Type Name
  ,                                       !- Default Construction Set Name
  ,                                       !- Default Schedule Set Name
  -0,                                     !- Direction of Relative North {deg}
  0,                                      !- X Origin {m}
  0,                                      !- Y Origin {m}
  0,                                      !- Z Origin {m}
  ,                                       !- Building Story Name
  {6b78abb9-6320-4485-ad32-ed69bf9d16ea}, !- Thermal Zone Name
  ,                                       !- Part of Total Floor Area
  ,                                       !- Design Specification Outdoor Air Object Name
  {e1d3201d-3f4c-4b94-98d9-eccdb84e4837}; !- Building Unit Name

OS:Surface,
  {710f0d4a-2b56-4377-9c35-9b7c75e0a53a}, !- Handle
  Surface 1,                              !- Name
  Floor,                                  !- Surface Type
  {234a4e29-3d52-4c9a-b24a-a636497d795c}, !- Construction Name
  {6f2d2722-4a17-4544-adf9-3fbec2c3d320}, !- Space Name
  Surface,                                !- Outside Boundary Condition
  {ba124f87-655a-402b-85d2-f8f0c0eee258}, !- Outside Boundary Condition Object
  NoSun,                                  !- Sun Exposure
  NoWind,                                 !- Wind Exposure
  ,                                       !- View Factor to Ground
  ,                                       !- Number of Vertices
  0, 0, 0,                                !- X,Y,Z Vertex 1 {m}
  0, 5.3921434204467, 0,                  !- X,Y,Z Vertex 2 {m}
  9.70585815680407, 5.3921434204467, 0,   !- X,Y,Z Vertex 3 {m}
  9.70585815680407, 0, 0;                 !- X,Y,Z Vertex 4 {m}

OS:Surface,
  {1003801b-31b4-457a-9aa4-4474d760b283}, !- Handle
  Surface 2,                              !- Name
  Wall,                                   !- Surface Type
  {3c5cdc61-6eb3-43db-b2b3-99ffd6e68d11}, !- Construction Name
  {6f2d2722-4a17-4544-adf9-3fbec2c3d320}, !- Space Name
  Outdoors,                               !- Outside Boundary Condition
  ,                                       !- Outside Boundary Condition Object
  SunExposed,                             !- Sun Exposure
  WindExposed,                            !- Wind Exposure
  ,                                       !- View Factor to Ground
  ,                                       !- Number of Vertices
  0, 5.3921434204467, 2.4384,             !- X,Y,Z Vertex 1 {m}
  0, 5.3921434204467, 0,                  !- X,Y,Z Vertex 2 {m}
  0, 0, 0,                                !- X,Y,Z Vertex 3 {m}
  0, 0, 2.4384;                           !- X,Y,Z Vertex 4 {m}

OS:Surface,
  {1e79e058-e3c3-4417-a5f6-fe0f27b25df9}, !- Handle
  Surface 3,                              !- Name
  Wall,                                   !- Surface Type
  {3c5cdc61-6eb3-43db-b2b3-99ffd6e68d11}, !- Construction Name
  {6f2d2722-4a17-4544-adf9-3fbec2c3d320}, !- Space Name
  Outdoors,                               !- Outside Boundary Condition
  ,                                       !- Outside Boundary Condition Object
  SunExposed,                             !- Sun Exposure
  WindExposed,                            !- Wind Exposure
  ,                                       !- View Factor to Ground
  ,                                       !- Number of Vertices
  9.70585815680407, 5.3921434204467, 2.4384, !- X,Y,Z Vertex 1 {m}
  9.70585815680407, 5.3921434204467, 0,   !- X,Y,Z Vertex 2 {m}
  0, 5.3921434204467, 0,                  !- X,Y,Z Vertex 3 {m}
  0, 5.3921434204467, 2.4384;             !- X,Y,Z Vertex 4 {m}

OS:Surface,
  {276439a7-1bb7-49c1-a086-6066e08eab5f}, !- Handle
  Surface 4,                              !- Name
  Wall,                                   !- Surface Type
  {3c5cdc61-6eb3-43db-b2b3-99ffd6e68d11}, !- Construction Name
  {6f2d2722-4a17-4544-adf9-3fbec2c3d320}, !- Space Name
  Outdoors,                               !- Outside Boundary Condition
  ,                                       !- Outside Boundary Condition Object
  SunExposed,                             !- Sun Exposure
  WindExposed,                            !- Wind Exposure
  ,                                       !- View Factor to Ground
  ,                                       !- Number of Vertices
  9.70585815680407, 0, 2.4384,            !- X,Y,Z Vertex 1 {m}
  9.70585815680407, 0, 0,                 !- X,Y,Z Vertex 2 {m}
  9.70585815680407, 5.3921434204467, 0,   !- X,Y,Z Vertex 3 {m}
  9.70585815680407, 5.3921434204467, 2.4384; !- X,Y,Z Vertex 4 {m}

OS:Surface,
  {5855e1a6-fb69-474f-ad54-848c5278441a}, !- Handle
  Surface 5,                              !- Name
  Wall,                                   !- Surface Type
  {3c5cdc61-6eb3-43db-b2b3-99ffd6e68d11}, !- Construction Name
  {6f2d2722-4a17-4544-adf9-3fbec2c3d320}, !- Space Name
  Outdoors,                               !- Outside Boundary Condition
  ,                                       !- Outside Boundary Condition Object
  SunExposed,                             !- Sun Exposure
  WindExposed,                            !- Wind Exposure
  ,                                       !- View Factor to Ground
  ,                                       !- Number of Vertices
  1.04865714285714, 0, 2.17886500841757e-07, !- X,Y,Z Vertex 1 {m}
  9.70585815680407, 0, 0,                 !- X,Y,Z Vertex 2 {m}
  9.70585815680407, 0, 2.4384,            !- X,Y,Z Vertex 3 {m}
  1.04865714285714, 0, 2.4383997821135;   !- X,Y,Z Vertex 4 {m}

OS:Surface,
  {8ecbe986-6891-4f58-9a89-d0e0eb3f050b}, !- Handle
  Surface 6,                              !- Name
  RoofCeiling,                            !- Surface Type
  {a911ff08-cd80-43d2-8cdc-e2c7c81c3e0c}, !- Construction Name
  {6f2d2722-4a17-4544-adf9-3fbec2c3d320}, !- Space Name
  Surface,                                !- Outside Boundary Condition
  {bc1e6682-7989-4a5e-996a-1e6fa7a9558d}, !- Outside Boundary Condition Object
  NoSun,                                  !- Sun Exposure
  NoWind,                                 !- Wind Exposure
  ,                                       !- View Factor to Ground
  ,                                       !- Number of Vertices