
OS:Version,
  {14aab96d-54ae-4eb9-b2e0-2ccd45c55603}, !- Handle
  3.3.0;                                  !- Version Identifier

OS:Building,
  {89d5fbb0-c4f6-4e62-a94b-3d3adb7a9e52}, !- Handle
  Building 1,                             !- Name
  ,                                       !- Building Sector Type
  135,                                    !- North Axis {deg}
  ,                                       !- Nominal Floor to Floor Height {m}
  ,                                       !- Space Type Name
  ,                                       !- Default Construction Set Name
  ,                                       !- Default Schedule Set Name
  2,                                      !- Standards Number of Stories
  2,                                      !- Standards Number of Above Ground Stories
  ,                                       !- Standards Template
  singlefamilydetached,                   !- Standards Building Type
  1;                                      !- Standards Number of Living Units

OS:Facility,
  {7b51bac9-8647-4258-9eda-9f3b15893ec4}; !- Handle

OS:Site,
  {eff0bf34-c74f-444b-83bd-14f5066fb41c}, !- Handle
  Denver-Aurora-Buckley AFB,              !- Name
  39.72,                                  !- Latitude {deg}
  -104.75,                                !- Longitude {deg}
  -7,                                     !- Time Zone {hr}
  1726,                                   !- Elevation {m}
  Suburbs;                                !- Terrain

OS:SimulationControl,
  {b051fa0e-f993-47ec-a472-2b77df6f8067}, !- Handle
  ,                                       !- Do Zone Sizing Calculation
  ,                                       !- Do System Sizing Calculation
  ,                                       !- Do Plant Sizing Calculation
  No;                                     !- Run Simulation for Sizing Periods

OS:Sizing:Parameters,
  {dede0cde-a326-4e32-be3c-11c5e99679d6}, !- Handle
  1.25,                                   !- Heating Sizing Factor
  1.15;                                   !- Cooling Sizing Factor

OS:Timestep,
  {0ba59019-c6c9-4b3e-8d44-772998f80f00}, !- Handle
  4;                                      !- Number of Timesteps per Hour

OS:ShadowCalculation,
  {cf0846a9-8085-4093-b502-04f3080dadb8}, !- Handle
  PolygonClipping,                        !- Shading Calculation Method
  ,                                       !- Shading Calculation Update Frequency Method
  20,                                     !- Shading Calculation Update Frequency
  200,                                    !- Maximum Figures in Shadow Overlap Calculations
  ,                                       !- Polygon Clipping Algorithm
  512,                                    !- Pixel Counting Resolution
  DetailedSkyDiffuseModeling,             !- Sky Diffuse Modeling Algorithm
  No,                                     !- Output External Shading Calculation Results
  No,                                     !- Disable Self-Shading Within Shading Zone Groups
  No;                                     !- Disable Self-Shading From Shading Zone Groups to Other Zones

OS:HeatBalanceAlgorithm,
  {3aaf4c2b-13ab-4741-9b5f-4327fd8c2fd2}, !- Handle
  ConductionTransferFunction,             !- Algorithm
  200;                                    !- Surface Temperature Upper Limit {C}

OS:RunPeriod,
  {e4fd695e-759c-4cc2-a7fe-65959f94c475}, !- Handle
  Run Period 1,                           !- Name
  1,                                      !- Begin Month
  1,                                      !- Begin Day of Month
  12,                                     !- End Month
  31,                                     !- End Day of Month
  ,                                       !- Use Weather File Holidays and Special Days
  ,                                       !- Use Weather File Daylight Saving Period
  ,                                       !- Apply Weekend Holiday Rule
  ,                                       !- Use Weather File Rain Indicators
  ,                                       !- Use Weather File Snow Indicators
  ;                                       !- Number of Times Runperiod to be Repeated

OS:LifeCycleCost:Parameters,
  {1d53d707-05ee-4643-8376-668aa76fa842}, !- Handle
  ,                                       !- Analysis Type
  ,                                       !- Discounting Convention
  ,                                       !- Inflation Approach
  ,                                       !- Real Discount Rate
  ,                                       !- Nominal Discount Rate
  ,                                       !- Inflation
  ,                                       !- Base Date Month
  ,                                       !- Base Date Year
  ,                                       !- Service Date Month
  ,                                       !- Service Date Year
  ;                                       !- Length of Study Period in Years

OS:SurfaceConvectionAlgorithm:Outside,
  {1d58e1c0-b597-4543-9502-cbb913de8d84}, !- Handle
  DOE-2;                                  !- Algorithm

OS:SurfaceConvectionAlgorithm:Inside,
  {61bf2993-dc2c-4c9f-941c-2080061ebb23}, !- Handle
  TARP;                                   !- Algorithm

OS:ZoneCapacitanceMultiplier:ResearchSpecial,
  {079b2801-69e1-4ebf-a522-b4ddda2c6fc3}, !- Handle
  ,                                       !- Temperature Capacity Multiplier
  15,                                     !- Humidity Capacity Multiplier
  ;                                       !- Carbon Dioxide Capacity Multiplier

OS:YearDescription,
  {05986e7e-7962-4108-8cae-1b6f60f59117}, !- Handle
  ,                                       !- Calendar Year
  Sunday,                                 !- Day of Week for Start Day
  ;                                       !- Is Leap Year

OS:AdditionalProperties,
  {5ac612d3-256c-427c-bd4e-cb340e19d78d}, !- Handle
  {89d5fbb0-c4f6-4e62-a94b-3d3adb7a9e52}, !- Object Name
  Building ID,                            !- Feature Name 1
  Integer,                                !- Feature Data Type 1
  9112,                                   !- Feature Value 1
  num_occupants,                          !- Feature Name 2
  Integer,                                !- Feature Data Type 2
  1,                                      !- Feature Value 2
  Schedules Path,                         !- Feature Name 3
  String,                                 !- Feature Data Type 3
  /var/simdata/openstudio/run/schedules.csv, !- Feature Value 3
  Total Units Modeled,                    !- Feature Name 4
  Integer,                                !- Feature Data Type 4
  1,                                      !- Feature Value 4
  has_water_heater_flue,                  !- Feature Name 5
  Boolean,                                !- Feature Data Type 5
  true,                                   !- Feature Value 5
  has_hvac_flue,                          !- Feature Name 6
  Boolean,                                !- Feature Data Type 6
  true,                                   !- Feature Value 6
  has_fireplace_chimney,                  !- Feature Name 7
  Boolean,                                !- Feature Data Type 7
  false;                                  !- Feature Value 7

OS:ClimateZones,
  {3bd8be00-ec8f-4d45-a0cd-52219a553adb}, !- Handle
  Building America,                       !- Climate Zone Institution Name 1
  ,                                       !- Climate Zone Document Name 1
  0,                                      !- Climate Zone Document Year 1
  Mixed-Humid,                            !- Climate Zone Value 1
  ASHRAE,                                 !- Climate Zone Institution Name 2
  ANSI/ASHRAE Standard 169,               !- Climate Zone Document Name 2
  2006,                                   !- Climate Zone Document Year 2
  ,                                       !- Climate Zone Value 2
  CEC,                                    !- Climate Zone Institution Name 3
  California Climate Zone Descriptions,   !- Climate Zone Document Name 3
  1995,                                   !- Climate Zone Document Year 3
  ;                                       !- Climate Zone Value 3

OS:Site:WaterMainsTemperature,
  {a124e016-e79f-4c84-94b6-66ccdedbf7c3}, !- Handle
  Correlation,                            !- Calculation Method
  ,                                       !- Temperature Schedule Name
  15.6899086757992,                       !- Annual Average Outdoor Air Temperature {C}
  23.6606182795699;                       !- Maximum Difference In Monthly Average Outdoor Air Temperatures {deltaC}

OS:RunPeriodControl:DaylightSavingTime,
  {307da867-ee1c-441d-b80f-4ebb90fabccf}, !- Handle
  3/10,                                   !- Start Date
  11/3;                                   !- End Date

OS:Site:GroundTemperature:Deep,
  {7c4bd20d-a506-46fb-b93e-efa69afe3ccb}, !- Handle
  15.6899086757992,                       !- January Deep Ground Temperature {C}
  15.6899086757992,                       !- February Deep Ground Temperature {C}
  15.6899086757992,                       !- March Deep Ground Temperature {C}
  15.6899086757992,                       !- April Deep Ground Temperature {C}
  15.6899086757992,                       !- May Deep Ground Temperature {C}
  15.6899086757992,                       !- June Deep Ground Temperature {C}
  15.6899086757992,                       !- July Deep Ground Temperature {C}
  15.6899086757992,                       !- August Deep Ground Temperature {C}
  15.6899086757992,                       !- September Deep Ground Temperature {C}
  15.6899086757992,                       !- October Deep Ground Temperature {C}
  15.6899086757992,                       !- November Deep Ground Temperature {C}
  15.6899086757992;                       !- December Deep Ground Temperature {C}

OS:ThermalZone,
  {42da9225-4e08-44f1-9cdb-4dcce76a8b88}, !- Handle
  living zone,                            !- Name
  ,                                       !- Multiplier
  ,                                       !- Ceiling Height {m}
  ,                                       !- Volume {m3}
  ,                                       !- Floor Area {m2}
  ,                                       !- Zone Inside Convection Algorithm
  ,                                       !- Zone Outside Convection Algorithm
  ,                                       !- Zone Conditioning Equipment List Name
  {ca9c516b-d737-4510-8f42-8505783274c8}, !- Zone Air Inlet Port List
  {59009abd-51cb-482b-94ca-d35da180f605}, !- Zone Air Exhaust Port List
  {b3dd078e-8458-4bce-9d6e-59bd21f150db}, !- Zone Air Node Name
  {fba49a86-60a7-4f28-84b4-1e56e1a0057b}, !- Zone Return Air Port List
  ,                                       !- Primary Daylighting Control Name
  ,                                       !- Fraction of Zone Controlled by Primary Daylighting Control
  ,                                       !- Secondary Daylighting Control Name
  ,                                       !- Fraction of Zone Controlled by Secondary Daylighting Control
  ,                                       !- Illuminance Map Name
  ,                                       !- Group Rendering Name
  {d6ca6ada-b228-4263-aff3-782acef0f571}, !- Thermostat Name
  No;                                     !- Use Ideal Air Loads

OS:Node,
  {64c3039e-28b1-4d15-b89c-a914127d7a7c}, !- Handle
  Node 1,                                 !- Name
  {b3dd078e-8458-4bce-9d6e-59bd21f150db}, !- Inlet Port
  ;                                       !- Outlet Port

OS:Connection,
  {b3dd078e-8458-4bce-9d6e-59bd21f150db}, !- Handle
  {42da9225-4e08-44f1-9cdb-4dcce76a8b88}, !- Source Object
  11,                                     !- Outlet Port
  {64c3039e-28b1-4d15-b89c-a914127d7a7c}, !- Target Object
  2;                                      !- Inlet Port

OS:PortList,
  {ca9c516b-d737-4510-8f42-8505783274c8}, !- Handle
  {42da9225-4e08-44f1-9cdb-4dcce76a8b88}, !- HVAC Component
  {c46ef22d-9acd-48e7-8805-a87b6de39ef7}, !- Port 1
  {f3a5a4e5-e7f2-4c8e-bbb8-e3a3cedefe6c}; !- Port 2

OS:PortList,
  {59009abd-51cb-482b-94ca-d35da180f605}, !- Handle
  {42da9225-4e08-44f1-9cdb-4dcce76a8b88}; !- HVAC Component

OS:PortList,
  {fba49a86-60a7-4f28-84b4-1e56e1a0057b}, !- Handle
  {42da9225-4e08-44f1-9cdb-4dcce76a8b88}, !- HVAC Component
  {975f4723-9970-41a9-85db-3e461e9e1003}, !- Port 1
  {8e61b2e7-78b3-40d4-aa0a-950ea1f75693}; !- Port 2

OS:Sizing:Zone,
  {63c0b2ae-fbd1-4916-9eac-0301858ae47a}, !- Handle
  {42da9225-4e08-44f1-9cdb-4dcce76a8b88}, !- Zone or ZoneList Name
  SupplyAirTemperature,                   !- Zone Cooling Design Supply Air Temperature Input Method
  14,                                     !- Zone Cooling Design Supply Air Temperature {C}
  11.11,                                  !- Zone Cooling Design Supply Air Temperature Difference {deltaC}
  SupplyAirTemperature,                   !- Zone Heating Design Supply Air Temperature Input Method
  40,                                     !- Zone Heating Design Supply Air Temperature {C}
  11.11,                                  !- Zone Heating Design Supply Air Temperature Difference {deltaC}
  0.0085,                                 !- Zone Cooling Design Supply Air Humidity Ratio {kg-H2O/kg-air}
  0.008,                                  !- Zone Heating Design Supply Air Humidity Ratio {kg-H2O/kg-air}
  ,                                       !- Zone Heating Sizing Factor
  ,                                       !- Zone Cooling Sizing Factor
  DesignDay,                              !- Cooling Design Air Flow Method
  ,                                       !- Cooling Design Air Flow Rate {m3/s}
  ,                                       !- Cooling Minimum Air Flow per Zone Floor Area {m3/s-m2}
  ,                                       !- Cooling Minimum Air Flow {m3/s}
  ,                                       !- Cooling Minimum Air Flow Fraction
  DesignDay,                              !- Heating Design Air Flow Method
  ,                                       !- Heating Design Air Flow Rate {m3/s}
  ,                                       !- Heating Maximum Air Flow per Zone Floor Area {m3/s-m2}
  ,                                       !- Heating Maximum Air Flow {m3/s}
  ,                                       !- Heating Maximum Air Flow Fraction
  No,                                     !- Account for Dedicated Outdoor Air System
  NeutralSupplyAir,                       !- Dedicated Outdoor Air System Control Strategy
  autosize,                               !- Dedicated Outdoor Air Low Setpoint Temperature for Design {C}
  autosize;                               !- Dedicated Outdoor Air High Setpoint Temperature for Design {C}

OS:ZoneHVAC:EquipmentList,
  {52f6a53c-3267-4adf-904d-8f893d8db149}, !- Handle
  Zone HVAC Equipment List 1,             !- Name
  {42da9225-4e08-44f1-9cdb-4dcce76a8b88}, !- Thermal Zone
  SequentialLoad,                         !- Load Distribution Scheme
  {6c729aac-d7bc-427a-b228-9cbe685b4fb8}, !- Zone Equipment 1
  1,                                      !- Zone Equipment Cooling Sequence 1
  1,                                      !- Zone Equipment Heating or No-Load Sequence 1
  ,                                       !- Zone Equipment Sequential Cooling Fraction Schedule Name 1
  ,                                       !- Zone Equipment Sequential Heating Fraction Schedule Name 1
  {a0836ed9-27c3-43e0-a8a8-32dbdaa3eafe}, !- Zone Equipment 2
  2,                                      !- Zone Equipment Cooling Sequence 2
  2,                                      !- Zone Equipment Heating or No-Load Sequence 2
  ,                                       !- Zone Equipment Sequential Cooling Fraction Schedule Name 2
  ;                                       !- Zone Equipment Sequential Heating Fraction Schedule Name 2

OS:ThermalZone,
  {82cf0576-b00f-497d-bc90-c6ee38e610cc}, !- Handle
  garage zone,                            !- Name
  ,                                       !- Multiplier
  ,                                       !- Ceiling Height {m}
  ,                                       !- Volume {m3}
  ,                                       !- Floor Area {m2}
  ,                                       !- Zone Inside Convection Algorithm
  ,                                       !- Zone Outside Convection Algorithm
  ,                                       !- Zone Conditioning Equipment List Name
  {2ce77b2c-3813-4b18-9b64-6f5435baaaf6}, !- Zone Air Inlet Port List
  {2470c778-0c40-4c6a-859a-6cdd1ed9d12b}, !- Zone Air Exhaust Port List
  {623868ac-7128-4cf5-9eab-ca52da35e3f9}, !- Zone Air Node Name
  {557bcd66-26a2-46c9-bbc1-697578f01855}, !- Zone Return Air Port List
  ,                                       !- Primary Daylighting Control Name
  ,                                       !- Fraction of Zone Controlled by Primary Daylighting Control
  ,                                       !- Secondary Daylighting Control Name
  ,                                       !- Fraction of Zone Controlled by Secondary Daylighting Control
  ,                                       !- Illuminance Map Name
  ,                                       !- Group Rendering Name
  ,                                       !- Thermostat Name
  No;                                     !- Use Ideal Air Loads

OS:Node,
  {e84f9eae-95ca-43d3-9e64-02fb4feb9b9f}, !- Handle
  Node 2,                                 !- Name
  {623868ac-7128-4cf5-9eab-ca52da35e3f9}, !- Inlet Port
  ;                                       !- Outlet Port

OS:Connection,
  {623868ac-7128-4cf5-9eab-ca52da35e3f9}, !- Handle
  {82cf0576-b00f-497d-bc90-c6ee38e610cc}, !- Source Object
  11,                                     !- Outlet Port
  {e84f9eae-95ca-43d3-9e64-02fb4feb9b9f}, !- Target Object
  2;                                      !- Inlet Port

OS:PortList,
  {2ce77b2c-3813-4b18-9b64-6f5435baaaf6}, !- Handle
  {82cf0576-b00f-497d-bc90-c6ee38e610cc}; !- HVAC Component

OS:PortList,
  {2470c778-0c40-4c6a-859a-6cdd1ed9d12b}, !- Handle
  {82cf0576-b00f-497d-bc90-c6ee38e610cc}; !- HVAC Component

OS:PortList,
  {557bcd66-26a2-46c9-bbc1-697578f01855}, !- Handle
  {82cf0576-b00f-497d-bc90-c6ee38e610cc}; !- HVAC Component

OS:Sizing:Zone,
  {5b30ff99-ebc5-4c73-b65c-7d07ff2aad37}, !- Handle
  {82cf0576-b00f-497d-bc90-c6ee38e610cc}, !- Zone or ZoneList Name
  SupplyAirTemperature,                   !- Zone Cooling Design Supply Air Temperature Input Method
  14,                                     !- Zone Cooling Design Supply Air Temperature {C}
  11.11,                                  !- Zone Cooling Design Supply Air Temperature Difference {deltaC}
  SupplyAirTemperature,                   !- Zone Heating Design Supply Air Temperature Input Method
  40,                                     !- Zone Heating Design Supply Air Temperature {C}
  11.11,                                  !- Zone Heating Design Supply Air Temperature Difference {deltaC}
  0.0085,                                 !- Zone Cooling Design Supply Air Humidity Ratio {kg-H2O/kg-air}
  0.008,                                  !- Zone Heating Design Supply Air Humidity Ratio {kg-H2O/kg-air}
  ,                                       !- Zone Heating Sizing Factor
  ,                                       !- Zone Cooling Sizing Factor
  DesignDay,                              !- Cooling Design Air Flow Method
  ,                                       !- Cooling Design Air Flow Rate {m3/s}
  ,                                       !- Cooling Minimum Air Flow per Zone Floor Area {m3/s-m2}
  ,                                       !- Cooling Minimum Air Flow {m3/s}
  ,                                       !- Cooling Minimum Air Flow Fraction
  DesignDay,                              !- Heating Design Air Flow Method
  ,                                       !- Heating Design Air Flow Rate {m3/s}
  ,                                       !- Heating Maximum Air Flow per Zone Floor Area {m3/s-m2}
  ,                                       !- Heating Maximum Air Flow {m3/s}
  ,                                       !- Heating Maximum Air Flow Fraction
  No,                                     !- Account for Dedicated Outdoor Air System
  NeutralSupplyAir,                       !- Dedicated Outdoor Air System Control Strategy
  autosize,                               !- Dedicated Outdoor Air Low Setpoint Temperature for Design {C}
  autosize;                               !- Dedicated Outdoor Air High Setpoint Temperature for Design {C}

OS:ZoneHVAC:EquipmentList,
  {2acef203-3a49-45cd-b71b-940ac410a138}, !- Handle
  Zone HVAC Equipment List 2,             !- Name
  {82cf0576-b00f-497d-bc90-c6ee38e610cc}; !- Thermal Zone

OS:Space,
  {ade2f90e-0dae-4b59-b3b7-b5e2383f68fa}, !- Handle
  garage space,                           !- Name
  {9430911b-20b3-4580-95a8-7051e057869b}, !- Space Type Name
  ,                                       !- Default Construction Set Name
  ,                                       !- Default Schedule Set Name
  -0,                                     !- Direction of Relative North {deg}
  0,                                      !- X Origin {m}
  0,                                      !- Y Origin {m}
  0,                                      !- Z Origin {m}
  ,                                       !- Building Story Name
  {82cf0576-b00f-497d-bc90-c6ee38e610cc}; !- Thermal Zone Name

OS:Surface,
  {da6ebbdd-7e6f-43d3-b720-4007b1cf5567}, !- Handle
  Surface 1,                              !- Name
  Floor,                                  !- Surface Type
  {c4d5497f-5961-4149-b999-e8b2e739dc1c}, !- Construction Name
  {ade2f90e-0dae-4b59-b3b7-b5e2383f68fa}, !- Space Name
  Foundation,                             !- Outside Boundary Condition
  {e7f75811-6ee8-47b6-8b26-c401e6050ac0}, !- Outside Boundary Condition Object
  NoSun,                                  !- Sun Exposure
  NoWind,                                 !- Wind Exposure
  ,                                       !- View Factor to Ground
  ,                                       !- Number of Vertices
  8.2296, -3.6576, 0,                     !- X,Y,Z Vertex 1 {m}
  8.2296, 3.6576, 0,                      !- X,Y,Z Vertex 2 {m}
  11.8872, 3.6576, 0,                     !- X,Y,Z Vertex 3 {m}
  11.8872, -3.6576, 0;                    !- X,Y,Z Vertex 4 {m}

OS:Surface,
  {a1a2cb20-ca6e-4925-95ba-cd3d3616368e}, !- Handle
  Surface 2,                              !- Name
  Wall,                                   !- Surface Type
  {4cd7c26c-9e8b-42b3-a7f9-747c6417a04a}, !- Construction Name
  {ade2f90e-0dae-4b59-b3b7-b5e2383f68fa}, !- Space Name
  Surface,                                !- Outside Boundary Condition
  {f5306ff9-8d46-4221-ba5e-b568bf975c41}, !- Outside Boundary Condition Object
  NoSun,                                  !- Sun Exposure
  NoWind,                                 !- Wind Exposure
  ,                                       !- View Factor to Ground
  ,                                       !- Number of Vertices
  8.2296, 3.6576, 2.4384,                 !- X,Y,Z Vertex 1 {m}
  8.2296, 3.6576, 0,                      !- X,Y,Z Vertex 2 {m}
  8.2296, 0, 0,                           !- X,Y,Z Vertex 3 {m}
  8.2296, 0, 2.4384;                      !- X,Y,Z Vertex 4 {m}

OS:Surface,
  {a687a677-bb08-4cef-b723-11b5795f9a8f}, !- Handle
  Surface 3,                              !- Name
  Wall,                                   !- Surface Type
  {4cd7c26c-9e8b-42b3-a7f9-747c6417a04a}, !- Construction Name
  {ade2f90e-0dae-4b59-b3b7-b5e2383f68fa}, !- Space Name
  Surface,                                !- Outside Boundary Condition
  {01536a76-4b4b-4fed-8f9a-d176a863ba35}, !- Outside Boundary Condition Object
  NoSun,                                  !- Sun Exposure
  NoWind,                                 !- Wind Exposure
  ,                                       !- View Factor to Ground
  ,                                       !- Number of Vertices
  11.8872, 3.6576, 2.4384,                !- X,Y,Z Vertex 1 {m}
  11.8872, 3.6576, 0,                     !- X,Y,Z Vertex 2 {m}
  8.2296, 3.6576, 0,                      !- X,Y,Z Vertex 3 {m}
  8.2296, 3.6576, 2.4384;                 !- X,Y,Z Vertex 4 {m}

OS:Surface,
  {9db65a90-f0d0-4837-b6f1-683b6dd07f60}, !- Handle
  Surface 4,                              !- Name
  Wall,                                   !- Surface Type
  {1c1bca92-c728-4c30-9a36-ddab808113cc}, !- Construction Name
  {ade2f90e-0dae-4b59-b3b7-b5e2383f68fa}, !- Space Name
  Outdoors,                               !- Outside Boundary Condition
  ,                                       !- Outside Boundary Condition Object
  SunExposed,                             !- Sun Exposure
  WindExposed,                            !- Wind Exposure
  ,                                       !- View Factor to Ground
  ,                                       !- Number of Vertices
  11.8872, -3.6576, 2.4384,               !- X,Y,Z Vertex 1 {m}
  11.8872, -3.6576, 0,                    !- X,Y,Z Vertex 2 {m}
  11.8872, 3.6576, 0,                     !- X,Y,Z Vertex 3 {m}
  11.8872, 3.6576, 2.4384;                !- X,Y,Z Vertex 4 {m}

OS:Surface,
  {3009ce84-635b-4c97-a3ac-99303bf87d7a}, !- Handle
  Surface 5,                              !- Name
  Wall,                                   !- Surface Type
  {1c1bca92-c728-4c30-9a36-ddab808113cc}, !- Construction Name
  {ade2f90e-0dae-4b59-b3b7-b5e2383f68fa}, !- Space Name
  Outdoors,                               !- Outside Boundary Condition
  ,                                       !- Outside Boundary Condition Object
  SunExposed,                             !- Sun Exposure
  WindExposed,                            !- Wind Exposure
  ,                                       !- View Factor to Ground
  ,                                       !- Number of Vertices
  8.2296, -3.6576, 2.4384,                !- X,Y,Z Vertex 1 {m}
  8.2296, -3.6576, 0,                     !- X,Y,Z Vertex 2 {m}
  11.8872, -3.6576, 0,                    !- X,Y,Z Vertex 3 {m}
  11.8872, -3.6576, 2.4384;               !- X,Y,Z Vertex 4 {m}

OS:Surface,
  {739dabb3-8f08-4e01-9867-c8d38b9f56ad}, !- Handle
  Surface 6,                              !- Name
  RoofCeiling,                            !- Surface Type
  {b107c5b0-3e7f-46ba-b9e1-fca164cb40bf}, !- Construction Name
  {ade2f90e-0dae-4b59-b3b7-b5e2383f68fa}, !- Space Name
  Surface,                                !- Outside Boundary Condition
  {1b78d5af-cf22-4457-8fb9-d71c63df49a6}, !- Outside Boundary Condition Object
  NoSun,                                  !- Sun Exposure
  NoWind,                                 !- Wind Exposure
  ,                                       !- View Factor to Ground
  ,                                       !- Number of Vertices
  11.8872, -3.6576, 2.4384,               !- X,Y,Z Vertex 1 {m}
  11.8872, 3.6576, 2.4384,                !- X,Y,Z Vertex 2 {m}
  8.2296, 3.6576, 2.4384,                 !- X,Y,Z Vertex 3 {m}
  8.2296, -3.6576, 2.4384;                !- X,Y,Z Vertex 4 {m}

OS:SpaceType,
  {9430911b-20b3-4580-95a8-7051e057869b}, !- Handle
  Space Type 1,                           !- Name
  ,                                       !- Default Construction Set Name
  ,                                       !- Default Schedule Set Name
  ,                                       !- Group Rendering Name
  ,                                       !- Design Specification Outdoor Air Object Name
  ,                                       !- Standards Template
  ,                                       !- Standards Building Type
  garage;                                 !- Standards Space Type

OS:Space,
  {61850ace-79c0-4d15-9e27-eb94d4418213}, !- Handle
  living space,                           !- Name
  {b3ead4de-d62e-4916-a556-6b11379a1ab8}, !- Space Type Name
  ,                                       !- Default Construction Set Name
  ,                                       !- Default Schedule Set Name
  -0,                                     !- Direction of Relative North {deg}
  0,                                      !- X Origin {m}
  0,                                      !- Y Origin {m}
  0,                                      !- Z Origin {m}
  ,                                       !- Building Story Name
  {42da9225-4e08-44f1-9cdb-4dcce76a8b88}, !- Thermal Zone Name
  ,                                       !- Part of Total Floor Area
  ,                                       !- Design Specification Outdoor Air Object Name
  {23bb26b0-615d-4a7b-8d2b-e0a388e236a8}; !- Building Unit Name

OS:Surface,
  {04cf0eaf-5b69-49db-9929-389e1b2f1ee8}, !- Handle
  Surface 7,                              !- Name
  Floor,                                  !- Surface Type
  {6960664b-a632-4c33-a976-d2e7ff08dd7f}, !- Construction Name
  {61850ace-79c0-4d15-9e27-eb94d4418213}, !- Space Name
  Surface,                                !- Outside Boundary Condition
  {3dacc682-6b20-4754-8514-5dd7966ba212}, !- Outside Boundary Condition Object
  NoSun,                                  !- Sun Exposure
  NoWind,                                 !- Wind Exposure
  ,                                       !- View Factor to Ground
  ,                                       !- Number of Vertices
  0, 0, 0,                                !- X,Y,Z Vertex 1 {m}
  0, 6.604, 0,                            !- X,Y,Z Vertex 2 {m}
  11.8872, 6.604, 0,                      !- X,Y,Z Vertex 3 {m}
  11.8872, 3.6576, 0,                     !- X,Y,Z Vertex 4 {m}
  8.2296, 3.6576, 0,                      !- X,Y,Z Vertex 5 {m}
  8.2296, 0, 0;                           !- X,Y,Z Vertex 6 {m}

OS:Surface,
  {90ce0488-e937-4ab8-ac0e-acee2cff2820}, !- Handle
  Surface 8,                              !- Name