
Version,
  9.6;                                    !- Version Identifier

Timestep,
  4;                                      !- Number of Timesteps per Hour

LifeCycleCost:Parameters,
  Life Cycle Cost Parameters,             !- Name
  EndOfYear,                              !- Discounting Convention
  ConstantDollar,                         !- Inflation Approach
  0.03,                                   !- Real Discount Rate
  ,                                       !- Nominal Discount Rate
  ,                                       !- Inflation
  ,                                       !- Base Date Month
  2011,                                   !- Base Date Year
  ,                                       !- Service Date Month
  2011,                                   !- Service Date Year
  25,                                     !- Length of Study Period in Years
  ,                                       !- Tax rate
  None;                                   !- Depreciation Method

LifeCycleCost:UsePriceEscalation,
  U.S. Avg  Commercial-Electricity,       !- Name
  Electricity,                            !- Resource
  2011,                                   !- Escalation Start Year
  January,                                !- Escalation Start Month
  0.9838,                                 !- Year Escalation 1
  0.9730,                                 !- Year Escalation 2
  0.9632,                                 !- Year Escalation 3
  0.9611,                                 !- Year Escalation 4
  0.9571,                                 !- Year Escalation 5
  0.9553,                                 !- Year Escalation 6
  0.9539,                                 !- Year Escalation 7
  0.9521,                                 !- Year Escalation 8
  0.9546,                                 !- Year Escalation 9
  0.9550,                                 !- Year Escalation 10
  0.9553,                                 !- Year Escalation 11
  0.9564,                                 !- Year Escalation 12
  0.9575,                                 !- Year Escalation 13
  0.9596,                                 !- Year Escalation 14
  0.9618,                                 !- Year Escalation 15
  0.9614,                                 !- Year Escalation 16
  0.9618,                                 !- Year Escalation 17
  0.9618,                                 !- Year Escalation 18
  0.9593,                                 !- Year Escalation 19
  0.9589,                                 !- Year Escalation 20
  0.9607,                                 !- Year Escalation 21
  0.9625,                                 !- Year Escalation 22
  0.9650,                                 !- Year Escalation 23
  0.9708,                                 !- Year Escalation 24
  0.9751,                                 !- Year Escalation 25
  0.9762,                                 !- Year Escalation 26
  0.9766,                                 !- Year Escalation 27
  0.9766,                                 !- Year Escalation 28
  0.9769,                                 !- Year Escalation 29
  0.9773;                                 !- Year Escalation 30

LifeCycleCost:UsePriceEscalation,
  U.S. Avg  Commercial-Distillate Oil,    !- Name
  FuelOilNo1,                             !- Resource
  2011,                                   !- Escalation Start Year
  January,                                !- Escalation Start Month
  0.9714,                                 !- Year Escalation 1
  0.9730,                                 !- Year Escalation 2
  0.9942,                                 !- Year Escalation 3
  1.0164,                                 !- Year Escalation 4
  1.0541,                                 !- Year Escalation 5
  1.0928,                                 !- Year Escalation 6
  1.1267,                                 !- Year Escalation 7
  1.1580,                                 !- Year Escalation 8
  1.1792,                                 !- Year Escalation 9
  1.1967,                                 !- Year Escalation 10
  1.2200,                                 !- Year Escalation 11
  1.2333,                                 !- Year Escalation 12
  1.2566,                                 !- Year Escalation 13
  1.2709,                                 !- Year Escalation 14
  1.2826,                                 !- Year Escalation 15
  1.2985,                                 !- Year Escalation 16
  1.3102,                                 !- Year Escalation 17
  1.3250,                                 !- Year Escalation 18
  1.3261,                                 !- Year Escalation 19
  1.3282,                                 !- Year Escalation 20
  1.3324,                                 !- Year Escalation 21
  1.3356,                                 !- Year Escalation 22
  1.3431,                                 !- Year Escalation 23
  1.3510,                                 !- Year Escalation 24
  1.3568,                                 !- Year Escalation 25
  1.3606,                                 !- Year Escalation 26
  1.3637,                                 !- Year Escalation 27
  1.3674,                                 !- Year Escalation 28
  1.3706,                                 !- Year Escalation 29
  1.3743;                                 !- Year Escalation 30

LifeCycleCost:UsePriceEscalation,
  U.S. Avg  Commercial-Residual Oil,      !- Name
  FuelOilNo2,                             !- Resource
  2011,                                   !- Escalation Start Year
  January,                                !- Escalation Start Month
  0.8469,                                 !- Year Escalation 1
  0.8257,                                 !- Year Escalation 2
  0.8681,                                 !- Year Escalation 3
  0.8988,                                 !- Year Escalation 4
  0.9289,                                 !- Year Escalation 5
  0.9604,                                 !- Year Escalation 6
  0.9897,                                 !- Year Escalation 7
  1.0075,                                 !- Year Escalation 8
  1.0314,                                 !- Year Escalation 9
  1.0554,                                 !- Year Escalation 10
  1.0861,                                 !- Year Escalation 11
  1.1278,                                 !- Year Escalation 12
  1.1497,                                 !- Year Escalation 13
  1.1620,                                 !- Year Escalation 14
  1.1743,                                 !- Year Escalation 15
  1.1852,                                 !- Year Escalation 16
  1.1948,                                 !- Year Escalation 17
  1.2037,                                 !- Year Escalation 18
  1.2071,                                 !- Year Escalation 19
  1.2119,                                 !- Year Escalation 20
  1.2139,                                 !- Year Escalation 21
  1.2194,                                 !- Year Escalation 22
  1.2276,                                 !- Year Escalation 23
  1.2365,                                 !- Year Escalation 24
  1.2420,                                 !- Year Escalation 25
  1.2461,                                 !- Year Escalation 26
  1.2509,                                 !- Year Escalation 27
  1.2550,                                 !- Year Escalation 28
  1.2591,                                 !- Year Escalation 29
  1.2638;                                 !- Year Escalation 30

LifeCycleCost:UsePriceEscalation,
  U.S. Avg  Commercial-Natural gas,       !- Name
  NaturalGas,                             !- Resource
  2011,                                   !- Escalation Start Year
  January,                                !- Escalation Start Month
  0.9823,                                 !- Year Escalation 1
  0.9557,                                 !- Year Escalation 2
  0.9279,                                 !- Year Escalation 3
  0.9257,                                 !- Year Escalation 4
  0.9346,                                 !- Year Escalation 5
  0.9412,                                 !- Year Escalation 6
  0.9512,                                 !- Year Escalation 7
  0.9645,                                 !- Year Escalation 8
  0.9856,                                 !- Year Escalation 9
  1.0067,                                 !- Year Escalation 10
  1.0222,                                 !- Year Escalation 11
  1.0410,                                 !- Year Escalation 12
  1.0610,                                 !- Year Escalation 13
  1.0787,                                 !- Year Escalation 14
  1.0942,                                 !- Year Escalation 15
  1.1098,                                 !- Year Escalation 16
  1.1220,                                 !- Year Escalation 17
  1.1308,                                 !- Year Escalation 18
  1.1386,                                 !- Year Escalation 19
  1.1486,                                 !- Year Escalation 20
  1.1619,                                 !- Year Escalation 21
  1.1763,                                 !- Year Escalation 22
  1.1918,                                 !- Year Escalation 23
  1.2118,                                 !- Year Escalation 24
  1.2284,                                 !- Year Escalation 25
  1.2439,                                 !- Year Escalation 26
  1.2605,                                 !- Year Escalation 27
  1.2772,                                 !- Year Escalation 28
  1.2938,                                 !- Year Escalation 29
  1.3115;                                 !- Year Escalation 30

LifeCycleCost:UsePriceEscalation,
  U.S. Avg  Commercial-Coal,              !- Name
  Coal,                                   !- Resource
  2011,                                   !- Escalation Start Year
  January,                                !- Escalation Start Month
  0.9970,                                 !- Year Escalation 1
  1.0089,                                 !- Year Escalation 2
  1.0089,                                 !- Year Escalation 3
  0.9941,                                 !- Year Escalation 4
  0.9941,                                 !- Year Escalation 5
  1.0000,                                 !- Year Escalation 6
  1.0030,                                 !- Year Escalation 7
  1.0059,                                 !- Year Escalation 8
  1.0089,                                 !- Year Escalation 9
  1.0119,                                 !- Year Escalation 10
  1.0148,                                 !- Year Escalation 11
  1.0178,                                 !- Year Escalation 12
  1.0208,                                 !- Year Escalation 13
  1.0267,                                 !- Year Escalation 14
  1.0297,                                 !- Year Escalation 15
  1.0356,                                 !- Year Escalation 16
  1.0415,                                 !- Year Escalation 17
  1.0534,                                 !- Year Escalation 18
  1.0564,                                 !- Year Escalation 19
  1.0593,                                 !- Year Escalation 20
  1.0653,                                 !- Year Escalation 21
  1.0712,                                 !- Year Escalation 22
  1.0742,                                 !- Year Escalation 23
  1.0801,                                 !- Year Escalation 24
  1.0831,                                 !- Year Escalation 25
  1.0831,                                 !- Year Escalation 26
  1.0861,                                 !- Year Escalation 27
  1.0890,                                 !- Year Escalation 28
  1.0920,                                 !- Year Escalation 29
  1.0950;                                 !- Year Escalation 30

Building,
  Building 1,                             !- Name
  180,                                    !- North Axis {deg}
  Suburbs,                                !- Terrain
  ,                                       !- Loads Convergence Tolerance Value {W}
  ,                                       !- Temperature Convergence Tolerance Value {deltaC}
  ,                                       !- Solar Distribution
  ,                                       !- Maximum Number of Warmup Days
  ;                                       !- Minimum Number of Warmup Days

Shading:Building:Detailed,
  Surface 25 - res eaves,                 !- Name
  ,                                       !- Transmittance Schedule Name
  ,                                       !- Number of Vertices
  -0.6096, 9.22967639736085, 5.1816,      !- X,Y,Z Vertex 1 {m}
  -0.6096, 4.61483819868043, 7.48901909934021, !- X,Y,Z Vertex 2 {m}
  0, 4.61483819868043, 7.48901909934021,  !- X,Y,Z Vertex 3 {m}
  0, 9.22967639736085, 5.1816;            !- X,Y,Z Vertex 4 {m}

Shading:Building:Detailed,
  Surface 25 - res eaves 1,               !- Name
  ,                                       !- Transmittance Schedule Name
  ,                                       !- Number of Vertices
  17.2230175152495, 4.61483819868043, 7.48901909934021, !- X,Y,Z Vertex 1 {m}
  17.2230175152495, 9.22967639736085, 5.1816, !- X,Y,Z Vertex 2 {m}
  16.6134175152495, 9.22967639736085, 5.1816, !- X,Y,Z Vertex 3 {m}
  16.6134175152495, 4.61483819868043, 7.48901909934021; !- X,Y,Z Vertex 4 {m}

Shading:Building:Detailed,
  Surface 25 - res eaves 2,               !- Name
  ,                                       !- Transmittance Schedule Name
  ,                                       !- Number of Vertices
  16.6134175152495, 9.83927639736085, 4.8768, !- X,Y,Z Vertex 1 {m}
  0, 9.83927639736085, 4.8768,            !- X,Y,Z Vertex 2 {m}
  0, 9.22967639736085, 5.1816,            !- X,Y,Z Vertex 3 {m}
  16.6134175152495, 9.22967639736085, 5.1816; !- X,Y,Z Vertex 4 {m}

Shading:Building:Detailed,
  Surface 31 - res eaves,                 !- Name
  ,                                       !- Transmittance Schedule Name
  ,                                       !- Number of Vertices
  5.03101751524953, 0, 4.8768,            !- X,Y,Z Vertex 1 {m}
  5.03101751524953, -3.6576, 4.8768,      !- X,Y,Z Vertex 2 {m}
  5.64061751524953, -3.6576, 5.13206878881558, !- X,Y,Z Vertex 3 {m}
  5.64061751524953, 0, 5.13206878881558;  !- X,Y,Z Vertex 4 {m}

Shading:Building:Detailed,
  Surface 31 - res eaves 1,               !- Name
  ,                                       !- Transmittance Schedule Name
  ,                                       !- Number of Vertices
  5.64061751524953, -4.2672, 5.13206878881558, !- X,Y,Z Vertex 1 {m}
  11.1270175152495, -4.2672, 7.42948788815579, !- X,Y,Z Vertex 2 {m}
  11.1270175152495, -3.6576, 7.42948788815579, !- X,Y,Z Vertex 3 {m}
  5.64061751524953, -3.6576, 5.13206878881558; !- X,Y,Z Vertex 4 {m}

Shading:Building:Detailed,
  Surface 32 - res eaves,                 !- Name
  ,                                       !- Transmittance Schedule Name
  ,                                       !- Number of Vertices
  17.2230175152495, -3.6576, 4.8768,      !- X,Y,Z Vertex 1 {m}
  17.2230175152495, 0, 4.8768,            !- X,Y,Z Vertex 2 {m}
  16.6134175152495, 0, 5.13206878881558,  !- X,Y,Z Vertex 3 {m}
  16.6134175152495, -3.6576, 5.13206878881558; !- X,Y,Z Vertex 4 {m}

Shading:Building:Detailed,
  Surface 32 - res eaves 1,               !- Name
  ,                                       !- Transmittance Schedule Name
  ,                                       !- Number of Vertices
  11.1270175152495, -4.2672, 7.42948788815579, !- X,Y,Z Vertex 1 {m}
  16.6134175152495, -4.2672, 5.13206878881558, !- X,Y,Z Vertex 2 {m}
  16.6134175152495, -3.6576, 5.13206878881558, !- X,Y,Z Vertex 3 {m}
  11.1270175152495, -3.6576, 7.42948788815579; !- X,Y,Z Vertex 4 {m}

Shading:Building:Detailed,
  Surface 35 - res eaves,                 !- Name
  ,                                       !- Transmittance Schedule Name
  ,                                       !- Number of Vertices
  -0.6096, 4.61483819868043, 7.48901909934021, !- X,Y,Z Vertex 1 {m}
  -0.6096, -2.34418726652498e-16, 5.1816, !- X,Y,Z Vertex 2 {m}
  0, -2.34418726652498e-16, 5.1816,       !- X,Y,Z Vertex 3 {m}
  0, 4.61483819868043, 7.48901909934021;  !- X,Y,Z Vertex 4 {m}

Shading:Building:Detailed,
  Surface 35 - res eaves 1,               !- Name
  ,                                       !- Transmittance Schedule Name
  ,                                       !- Number of Vertices
  0, -0.6096, 4.8768,                     !- X,Y,Z Vertex 1 {m}
  5.64061751524953, -0.6096, 4.8768,      !- X,Y,Z Vertex 2 {m}
  5.64061751524953, -2.34418726652498e-16, 5.1816, !- X,Y,Z Vertex 3 {m}
  0, -2.34418726652498e-16, 5.1816;       !- X,Y,Z Vertex 4 {m}

Shading:Building:Detailed,
  Surface 35 - res eaves 2,               !- Name
  ,                                       !- Transmittance Schedule Name
  ,                                       !- Number of Vertices
  17.2230175152495, -2.34418726652498e-16, 5.1816, !- X,Y,Z Vertex 1 {m}
  17.2230175152495, 4.61483819868043, 7.48901909934021, !- X,Y,Z Vertex 2 {m}
  16.6134175152495, 4.61483819868043, 7.48901909934021, !- X,Y,Z Vertex 3 {m}
  16.6134175152495, -2.34418726652498e-16, 5.1816; !- X,Y,Z Vertex 4 {m}

Shading:Building:Detailed,
  res neighbors left,                     !- Name
  ,                                       !- Transmittance Schedule Name
  ,                                       !- Number of Vertices
  -4.572, -3.6576, 0,                     !- X,Y,Z Vertex 1 {m}
  -4.572, -3.6576, 7.18421909934021,      !- X,Y,Z Vertex 2 {m}
  -4.572, 9.22967639736085, 7.18421909934021, !- X,Y,Z Vertex 3 {m}
  -4.572, 9.22967639736085, 0;            !- X,Y,Z Vertex 4 {m}

Shading:Building:Detailed,
  res neighbors right,                    !- Name
  ,                                       !- Transmittance Schedule Name
  ,                                       !- Number of Vertices
  21.1854175152495, 9.22967639736085, 0,  !- X,Y,Z Vertex 1 {m}
  21.1854175152495, 9.22967639736085, 7.18421909934021, !- X,Y,Z Vertex 2 {m}
  21.1854175152495, -3.6576, 7.18421909934021, !- X,Y,Z Vertex 3 {m}
  21.1854175152495, -3.6576, 0;           !- X,Y,Z Vertex 4 {m}

Shading:Building:Detailed,
  Surface 10 - Window 1 shading surface,  !- Name
  window shading schedule,                !- Transmittance Schedule Name
  ,                                       !- Number of Vertices
  16.613416608, 4.6101463627283, 2.1336,  !- X,Y,Z Vertex 1 {m}
  16.613416608, 4.6101463627283, 0.968114935764818, !- X,Y,Z Vertex 2 {m}
  16.613416608, 5.484478744, 0.968114935764818, !- X,Y,Z Vertex 3 {m}
  16.613416608, 5.484478744, 2.1336;      !- X,Y,Z Vertex 4 {m}

Shading:Building:Detailed,
  Surface 10 - Window 2 shading surface,  !- Name
  window shading schedule,                !- Transmittance Schedule Name
  ,                                       !- Number of Vertices
  16.613416608, 5.545438744, 2.1336,      !- X,Y,Z Vertex 1 {m}
  16.613416608, 5.545438744, 0.968114935764818, !- X,Y,Z Vertex 2 {m}
  16.613416608, 6.4197711252717, 0.968114935764818, !- X,Y,Z Vertex 3 {m}
  16.613416608, 6.4197711252717, 2.1336;  !- X,Y,Z Vertex 4 {m}

Shading:Building:Detailed,
  Surface 10 - Window 3 shading surface,  !- Name
  window shading schedule,                !- Transmittance Schedule Name
  ,                                       !- Number of Vertices
  16.613416608, 6.46750510672829, 2.1336, !- X,Y,Z Vertex 1 {m}
  16.613416608, 6.46750510672829, 0.968114935764818, !- X,Y,Z Vertex 2 {m}
  16.613416608, 7.341837488, 0.968114935764818, !- X,Y,Z Vertex 3 {m}
  16.613416608, 7.341837488, 2.1336;      !- X,Y,Z Vertex 4 {m}

Shading:Building:Detailed,
  Surface 10 - Window 4 shading surface,  !- Name
  window shading schedule,                !- Transmittance Schedule Name
  ,                                       !- Number of Vertices
  16.613416608, 7.402797488, 2.1336,      !- X,Y,Z Vertex 1 {m}
  16.613416608, 7.402797488, 0.968114935764818, !- X,Y,Z Vertex 2 {m}
  16.613416608, 8.27712986927171, 0.968114935764818, !- X,Y,Z Vertex 3 {m}
  16.613416608, 8.27712986927171, 2.1336; !- X,Y,Z Vertex 4 {m}

Shading:Building:Detailed,
  Surface 13 - Window 1 shading surface,  !- Name
  window shading schedule,                !- Transmittance Schedule Name
  ,                                       !- Number of Vertices
  1.73572262008135, 0, 2.1336,            !- X,Y,Z Vertex 1 {m}
  1.73572262008135, 0, 1.04972643359244,  !- X,Y,Z Vertex 2 {m}
  2.548831072, 0, 1.04972643359244,       !- X,Y,Z Vertex 3 {m}
  2.548831072, 0, 2.1336;                 !- X,Y,Z Vertex 4 {m}

Shading:Building:Detailed,
  Surface 13 - Window 2 shading surface,  !- Name
  window shading schedule,                !- Transmittance Schedule Name
  ,                                       !- Number of Vertices
  2.609791072, 0, 2.1336,                 !- X,Y,Z Vertex 1 {m}
  2.609791072, 0, 1.04972643359244,       !- X,Y,Z Vertex 2 {m}
  3.42289952391865, 0, 1.04972643359244,  !- X,Y,Z Vertex 3 {m}
  3.42289952391865, 0, 2.1336;            !- X,Y,Z Vertex 4 {m}

Shading:Building:Detailed,
  Surface 13 - Window 3 shading surface,  !- Name
  window shading schedule,                !- Transmittance Schedule Name
  ,                                       !- Number of Vertices
  3.26637538808135, 0, 2.1336,            !- X,Y,Z Vertex 1 {m}
  3.26637538808135, 0, 1.04972643359244,  !- X,Y,Z Vertex 2 {m}
  4.07948384, 0, 1.04972643359244,        !- X,Y,Z Vertex 3 {m}
  4.07948384, 0, 2.1336;                  !- X,Y,Z Vertex 4 {m}

Shading:Building:Detailed,
  Surface 13 - Window 4 shading surface,  !- Name
  window shading schedule,                !- Transmittance Schedule Name
  ,                                       !- Number of Vertices
  4.14044384, 0, 2.1336,                  !- X,Y,Z Vertex 1 {m}
  4.14044384, 0, 1.04972643359244,        !- X,Y,Z Vertex 2 {m}
  4.95355229191865, 0, 1.04972643359244,  !- X,Y,Z Vertex 3 {m}
  4.95355229191865, 0, 2.1336;            !- X,Y,Z Vertex 4 {m}

Shading:Building:Detailed,
  Surface 16 - Window 1 shading surface,  !- Name
  window shading schedule,                !- Transmittance Schedule Name
  ,                                       !- Number of Vertices
  0, 8.26485402026364, 4.572,             !- X,Y,Z Vertex 1 {m}
  0, 8.26485402026364, 3.43810616479337,  !- X,Y,Z Vertex 2 {m}
  0, 7.4142209856, 3.43810616479337,      !- X,Y,Z Vertex 3 {m}
  0, 7.4142209856, 4.572;                 !- X,Y,Z Vertex 4 {m}

Shading:Building:Detailed,
  Surface 16 - Window 2 shading surface,  !- Name
  window shading schedule,                !- Transmittance Schedule Name
  ,                                       !- Number of Vertices
  0, 7.3532609856, 4.572,                 !- X,Y,Z Vertex 1 {m}
  0, 7.3532609856, 3.43810616479337,      !- X,Y,Z Vertex 2 {m}
  0, 6.50262795093636, 3.43810616479337,  !- X,Y,Z Vertex 3 {m}
  0, 6.50262795093636, 4.572;             !- X,Y,Z Vertex 4 {m}

Shading:Building:Detailed,
  Surface 16 - Window 3 shading surface,  !- Name
  window shading schedule,                !- Transmittance Schedule Name
  ,                                       !- Number of Vertices
  0, 6.41891877386364, 4.572,             !- X,Y,Z Vertex 1 {m}
  0, 6.41891877386364, 3.43810616479337,  !- X,Y,Z Vertex 2 {m}
  0, 5.5682857392, 3.43810616479337,      !- X,Y,Z Vertex 3 {m}
  0, 5.5682857392, 4.572;                 !- X,Y,Z Vertex 4 {m}

Shading:Building:Detailed,
  Surface 16 - Window 4 shading surface,  !- Name
  window shading schedule,                !- Transmittance Schedule Name
  ,                                       !- Number of Vertices
  0, 5.5073257392, 4.572,                 !- X,Y,Z Vertex 1 {m}
  0, 5.5073257392, 3.43810616479337,      !- X,Y,Z Vertex 2 {m}
  0, 4.65669270453636, 3.43810616479337,  !- X,Y,Z Vertex 3 {m}
  0, 4.65669270453636, 4.572;             !- X,Y,Z Vertex 4 {m}

Shading:Building:Detailed,
  Surface 16 - Window 5 shading surface,  !- Name
  window shading schedule,                !- Transmittance Schedule Name
  ,                                       !- Number of Vertices
  0, 4.57298352746364, 4.572,             !- X,Y,Z Vertex 1 {m}
  0, 4.57298352746364, 3.43810616479337,  !- X,Y,Z Vertex 2 {m}
  0, 3.7223504928, 3.43810616479337,      !- X,Y,Z Vertex 3 {m}
  0, 3.7223504928, 4.572;                 !- X,Y,Z Vertex 4 {m}

Shading:Building:Detailed,
  Surface 16 - Window 6 shading surface,  !- Name
  window shading schedule,                !- Transmittance Schedule Name
  ,                                       !- Number of Vertices
  0, 3.6613904928, 4.572,                 !- X,Y,Z Vertex 1 {m}
  0, 3.6613904928, 3.43810616479337,      !- X,Y,Z Vertex 2 {m}
  0, 2.81075745813637, 3.43810616479337,  !- X,Y,Z Vertex 3 {m}
  0, 2.81075745813637, 4.572;             !- X,Y,Z Vertex 4 {m}

Shading:Building:Detailed,
  Surface 16 - Window 7 shading surface,  !- Name
  window shading schedule,                !- Transmittance Schedule Name
  ,                                       !- Number of Vertices
  0, 2.27125176373182, 4.572,             !- X,Y,Z Vertex 1 {m}
  0, 2.27125176373182, 3.43810616479337,  !- X,Y,Z Vertex 2 {m}
  0, 1.42061872906818, 3.43810616479337,  !- X,Y,Z Vertex 3 {m}
  0, 1.42061872906818, 4.572;             !- X,Y,Z Vertex 4 {m}

Shading:Building:Detailed,
  Surface 17 - Window 1 shading surface,  !- Name
  window shading schedule,                !- Transmittance Schedule Name
  ,                                       !- Number of Vertices
  15.1809491261125, 9.229676232, 4.572,   !- X,Y,Z Vertex 1 {m}
  15.1809491261125, 9.229676232, 3.35843980214686, !- X,Y,Z Vertex 2 {m}
  14.2705513782857, 9.229676232, 3.35843980214686, !- X,Y,Z Vertex 3 {m}
  14.2705513782857, 9.229676232, 4.572;   !- X,Y,Z Vertex 4 {m}

Shading:Building:Detailed,
  Surface 17 - Window 10 shading surface, !- Name
  window shading schedule,                !- Transmittance Schedule Name
  ,                                       !- Number of Vertices
  4.71621045942857, 9.229676232, 4.572,   !- X,Y,Z Vertex 1 {m}
  4.71621045942857, 9.229676232, 3.35843980214686, !- X,Y,Z Vertex 2 {m}
  3.80581271160176, 9.229676232, 3.35843980214686, !- X,Y,Z Vertex 3 {m}
  3.80581271160176, 9.229676232, 4.572;   !- X,Y,Z Vertex 4 {m}

Shading:Building:Detailed,
  Surface 17 - Window 11 shading surface, !- Name
  window shading schedule,                !- Transmittance Schedule Name
  ,                                       !- Number of Vertices
  2.82854410362769, 9.229676232, 4.572,   !- X,Y,Z Vertex 1 {m}
  2.82854410362769, 9.229676232, 3.35843980214686, !- X,Y,Z Vertex 2 {m}
  1.91814635580088, 9.229676232, 3.35843980214686, !- X,Y,Z Vertex 3 {m}
  1.91814635580088, 9.229676232, 4.572;   !- X,Y,Z Vertex 4 {m}

Shading:Building:Detailed,
  Surface 17 - Window 2 shading surface,  !- Name
  window shading schedule,                !- Transmittance Schedule Name
  ,                                       !- Number of Vertices
  14.2095913782857, 9.229676232, 4.572,   !- X,Y,Z Vertex 1 {m}
  14.2095913782857, 9.229676232, 3.35843980214686, !- X,Y,Z Vertex 2 {m}
  13.2991936304589, 9.229676232, 3.35843980214686, !- X,Y,Z Vertex 3 {m}
  13.2991936304589, 9.229676232, 4.572;   !- X,Y,Z Vertex 4 {m}

Shading:Building:Detailed,
  Surface 17 - Window 3 shading surface,  !- Name
  window shading schedule,                !- Transmittance Schedule Name
  ,                                       !- Number of Vertices
  12.8076038963982, 9.229676232, 4.572,   !- X,Y,Z Vertex 1 {m}
  12.8076038963982, 9.229676232, 3.35843980214686, !- X,Y,Z Vertex 2 {m}
  11.8972061485714, 9.229676232, 3.35843980214686, !- X,Y,Z Vertex 3 {m}
  11.8972061485714, 9.229676232, 4.572;   !- X,Y,Z Vertex 4 {m}

Shading:Building:Detailed,
  Surface 17 - Window 4 shading surface,  !- Name
  window shading schedule,                !- Transmittance Schedule Name
  ,                                       !- Number of Vertices
  11.8362461485714, 9.229676232, 4.572,   !- X,Y,Z Vertex 1 {m}
  11.8362461485714, 9.229676232, 3.35843980214686, !- X,Y,Z Vertex 2 {m}
  10.9258484007446, 9.229676232, 3.35843980214686, !- X,Y,Z Vertex 3 {m}
  10.9258484007446, 9.229676232, 4.572;   !- X,Y,Z Vertex 4 {m}

Shading:Building:Detailed,
  Surface 17 - Window 5 shading surface,  !- Name
  window shading schedule,                !- Transmittance Schedule Name
  ,                                       !- Number of Vertices
  10.434258666684, 9.229676232, 4.572,    !- X,Y,Z Vertex 1 {m}
  10.434258666684, 9.229676232, 3.35843980214686, !- X,Y,Z Vertex 2 {m}
  9.52386091885715, 9.229676232, 3.35843980214686, !- X,Y,Z Vertex 3 {m}
  9.52386091885715, 9.229676232, 4.572;   !- X,Y,Z Vertex 4 {m}

Shading:Building:Detailed,
  Surface 17 - Window 6 shading surface,  !- Name
  window shading schedule,                !- Transmittance Schedule Name
  ,                                       !- Number of Vertices
  9.46290091885714, 9.229676232, 4.572,   !- X,Y,Z Vertex 1 {m}
  9.46290091885714, 9.229676232, 3.35843980214686, !- X,Y,Z Vertex 2 {m}
  8.55250317103033, 9.229676232, 3.35843980214686, !- X,Y,Z Vertex 3 {m}
  8.55250317103033, 9.229676232, 4.572;   !- X,Y,Z Vertex 4 {m}

Shading:Building:Detailed,
  Surface 17 - Window 7 shading surface,  !- Name
  window shading schedule,                !- Transmittance Schedule Name
  ,                                       !- Number of Vertices
  8.06091343696967, 9.229676232, 4.572,   !- X,Y,Z Vertex 1 {m}
  8.06091343696967, 9.229676232, 3.35843980214686, !- X,Y,Z Vertex 2 {m}
  7.15051568914286, 9.229676232, 3.35843980214686, !- X,Y,Z Vertex 3 {m}
  7.15051568914286, 9.229676232, 4.572;   !- X,Y,Z Vertex 4 {m}

Shading:Building:Detailed,
  Surface 17 - Window 8 shading surface,  !- Name