
OS:Version,
  {15605f54-619d-4975-ae18-776b79e56336}, !- Handle
  3.3.0;                                  !- Version Identifier

OS:Building,
  {2fdf3280-68eb-438c-9a98-0cc9db11d4f7}, !- Handle
  Building 1,                             !- Name
  ,                                       !- Building Sector Type
  0,                                      !- North Axis {deg}
  ,                                       !- Nominal Floor to Floor Height {m}
  ,                                       !- Space Type Name
  ,                                       !- Default Construction Set Name
  ,                                       !- Default Schedule Set Name
  3,                                      !- Standards Number of Stories
  2,                                      !- Standards Number of Above Ground Stories
  ,                                       !- Standards Template
  multifamily,                            !- Standards Building Type
  2;                                      !- Standards Number of Living Units

OS:Facility,
  {d75b8a00-0167-4671-b0cf-3dc9180ab288}; !- Handle

OS:Site,
  {0a606287-08e2-466e-b35f-f7307a9d7cfa}, !- Handle
  Denver-Aurora-Buckley AFB,              !- Name
  39.72,                                  !- Latitude {deg}
  -104.75,                                !- Longitude {deg}
  -7,                                     !- Time Zone {hr}
  1726,                                   !- Elevation {m}
  Suburbs;                                !- Terrain

OS:SimulationControl,
  {16d89ca8-ee86-4730-a68c-f6a511170617}, !- Handle
  ,                                       !- Do Zone Sizing Calculation
  ,                                       !- Do System Sizing Calculation
  ,                                       !- Do Plant Sizing Calculation
  Yes;                                    !- Run Simulation for Sizing Periods

OS:Sizing:Parameters,
  {151202fe-a776-4402-add8-7cd44845d169}, !- Handle
  1.25,                                   !- Heating Sizing Factor
  1.15;                                   !- Cooling Sizing Factor

OS:Timestep,
  {c8519230-3fd7-42b9-a5c7-9f4fc687addc}, !- Handle
  4;                                      !- Number of Timesteps per Hour

OS:ShadowCalculation,
  {90f60ca1-91e7-4015-acf7-d4b67cf61b0c}, !- Handle
  PolygonClipping,                        !- Shading Calculation Method
  ,                                       !- Shading Calculation Update Frequency Method
  20,                                     !- Shading Calculation Update Frequency
  200,                                    !- Maximum Figures in Shadow Overlap Calculations
  ,                                       !- Polygon Clipping Algorithm
  512,                                    !- Pixel Counting Resolution
  DetailedSkyDiffuseModeling,             !- Sky Diffuse Modeling Algorithm
  No,                                     !- Output External Shading Calculation Results
  No,                                     !- Disable Self-Shading Within Shading Zone Groups
  No;                                     !- Disable Self-Shading From Shading Zone Groups to Other Zones

OS:HeatBalanceAlgorithm,
  {d7a9f070-98fd-4f55-8433-db3c237bf47b}, !- Handle
  ConductionTransferFunction,             !- Algorithm
  200;                                    !- Surface Temperature Upper Limit {C}

OS:RunPeriod,
  {2c2347b7-b090-48ce-a90d-9c266b98673e}, !- Handle
  Run Period 1,                           !- Name
  1,                                      !- Begin Month
  1,                                      !- Begin Day of Month
  12,                                     !- End Month
  31,                                     !- End Day of Month
  ,                                       !- Use Weather File Holidays and Special Days
  ,                                       !- Use Weather File Daylight Saving Period
  ,                                       !- Apply Weekend Holiday Rule
  ,                                       !- Use Weather File Rain Indicators
  ,                                       !- Use Weather File Snow Indicators
  ;                                       !- Number of Times Runperiod to be Repeated

OS:LifeCycleCost:Parameters,
  {69b213f8-75de-4444-a131-25e47ed59615}, !- Handle
  ,                                       !- Analysis Type
  ,                                       !- Discounting Convention
  ,                                       !- Inflation Approach
  ,                                       !- Real Discount Rate
  ,                                       !- Nominal Discount Rate
  ,                                       !- Inflation
  ,                                       !- Base Date Month
  ,                                       !- Base Date Year
  ,                                       !- Service Date Month
  ,                                       !- Service Date Year
  ;                                       !- Length of Study Period in Years

OS:SurfaceConvectionAlgorithm:Outside,
  {e82ecf7d-6e30-472c-b9af-e412a9ba6482}, !- Handle
  DOE-2;                                  !- Algorithm

OS:SurfaceConvectionAlgorithm:Inside,
  {a4a59dfa-6a0f-4060-9ef3-6952fe49f7a9}, !- Handle
  TARP;                                   !- Algorithm

OS:ZoneCapacitanceMultiplier:ResearchSpecial,
  {9251415f-6cde-4508-8c0a-d4ac369269e5}, !- Handle
  ,                                       !- Temperature Capacity Multiplier
  15,                                     !- Humidity Capacity Multiplier
  ;                                       !- Carbon Dioxide Capacity Multiplier

OS:YearDescription,
  {63f2d819-d750-435c-aaf3-5314c09f93bb}, !- Handle
  ,                                       !- Calendar Year
  Sunday,                                 !- Day of Week for Start Day
  ;                                       !- Is Leap Year

OS:AdditionalProperties,
  {7bb96ecb-8e3b-4455-aa42-2a4ec06da529}, !- Handle
  {2fdf3280-68eb-438c-9a98-0cc9db11d4f7}, !- Object Name
  Building ID,                            !- Feature Name 1
  Integer,                                !- Feature Data Type 1
  538733,                                 !- Feature Value 1
  num_occupants,                          !- Feature Name 2
  Integer,                                !- Feature Data Type 2
  2,                                      !- Feature Value 2
  Schedules Path,                         !- Feature Name 3
  String,                                 !- Feature Data Type 3
  /var/simdata/openstudio/run/schedules.csv, !- Feature Value 3
  num_units,                              !- Feature Name 4
  Integer,                                !- Feature Data Type 4
  2,                                      !- Feature Value 4
  has_rear_units,                         !- Feature Name 5
  Boolean,                                !- Feature Data Type 5
  false,                                  !- Feature Value 5
  num_floors,                             !- Feature Name 6
  Integer,                                !- Feature Data Type 6
  2,                                      !- Feature Value 6
  horz_location,                          !- Feature Name 7
  String,                                 !- Feature Data Type 7
  None,                                   !- Feature Value 7
  level,                                  !- Feature Name 8
  String,                                 !- Feature Data Type 8
  Top,                                    !- Feature Value 8
  found_type,                             !- Feature Name 9
  String,                                 !- Feature Data Type 9
  unfinished basement,                    !- Feature Value 9
  corridor_width,                         !- Feature Name 10
  Double,                                 !- Feature Data Type 10
  3.048,                                  !- Feature Value 10
  corridor_position,                      !- Feature Name 11
  String,                                 !- Feature Data Type 11
  Single Exterior (Front),                !- Feature Value 11
  has_water_heater_flue,                  !- Feature Name 12
  Boolean,                                !- Feature Data Type 12
  true,                                   !- Feature Value 12
  has_hvac_flue,                          !- Feature Name 13
  Boolean,                                !- Feature Data Type 13
  true,                                   !- Feature Value 13
  has_fireplace_chimney,                  !- Feature Name 14
  Boolean,                                !- Feature Data Type 14
  false;                                  !- Feature Value 14

OS:ClimateZones,
  {5d9199f5-fa67-4540-898d-fcb97847f0d3}, !- Handle
  Building America,                       !- Climate Zone Institution Name 1
  ,                                       !- Climate Zone Document Name 1
  0,                                      !- Climate Zone Document Year 1
  Cold,                                   !- Climate Zone Value 1
  ASHRAE,                                 !- Climate Zone Institution Name 2
  ANSI/ASHRAE Standard 169,               !- Climate Zone Document Name 2
  2006,                                   !- Climate Zone Document Year 2
  ,                                       !- Climate Zone Value 2
  CEC,                                    !- Climate Zone Institution Name 3
  California Climate Zone Descriptions,   !- Climate Zone Document Name 3
  1995,                                   !- Climate Zone Document Year 3
  ;                                       !- Climate Zone Value 3

OS:Site:WaterMainsTemperature,
  {78ce6b3b-64c6-4deb-85b6-07494aa50b12}, !- Handle
  Correlation,                            !- Calculation Method
  ,                                       !- Temperature Schedule Name
  9.04877853881277,                       !- Annual Average Outdoor Air Temperature {C}
  30.2172043010753;                       !- Maximum Difference In Monthly Average Outdoor Air Temperatures {deltaC}

OS:RunPeriodControl:DaylightSavingTime,
  {93549e44-1031-43da-bae4-cd4e9ff43f1e}, !- Handle
  3/10,                                   !- Start Date
  11/3;                                   !- End Date

OS:Site:GroundTemperature:Deep,
  {49067d1f-7a14-4ac4-adb2-d409d0b5e725}, !- Handle
  9.04877853881277,                       !- January Deep Ground Temperature {C}
  9.04877853881277,                       !- February Deep Ground Temperature {C}
  9.04877853881277,                       !- March Deep Ground Temperature {C}
  9.04877853881277,                       !- April Deep Ground Temperature {C}
  9.04877853881277,                       !- May Deep Ground Temperature {C}
  9.04877853881277,                       !- June Deep Ground Temperature {C}
  9.04877853881277,                       !- July Deep Ground Temperature {C}
  9.04877853881277,                       !- August Deep Ground Temperature {C}
  9.04877853881277,                       !- September Deep Ground Temperature {C}
  9.04877853881277,                       !- October Deep Ground Temperature {C}
  9.04877853881277,                       !- November Deep Ground Temperature {C}
  9.04877853881277;                       !- December Deep Ground Temperature {C}

OS:ThermalZone,
  {0cfe6d99-7883-48a8-bb37-7402a9e5de7e}, !- Handle
  living zone,                            !- Name
  ,                                       !- Multiplier
  ,                                       !- Ceiling Height {m}
  ,                                       !- Volume {m3}
  ,                                       !- Floor Area {m2}
  ,                                       !- Zone Inside Convection Algorithm
  ,                                       !- Zone Outside Convection Algorithm
  ,                                       !- Zone Conditioning Equipment List Name
  {94e7bef0-57e6-40eb-b90a-1fced1cd629f}, !- Zone Air Inlet Port List
  {705f197b-6559-4917-a661-eff4a3d4a944}, !- Zone Air Exhaust Port List
  {a61d5b77-84fa-4b4c-80c8-4e394c2c1bce}, !- Zone Air Node Name
  {b02486ea-07d1-4a7c-8fe8-07ce0c783187}, !- Zone Return Air Port List
  ,                                       !- Primary Daylighting Control Name
  ,                                       !- Fraction of Zone Controlled by Primary Daylighting Control
  ,                                       !- Secondary Daylighting Control Name
  ,                                       !- Fraction of Zone Controlled by Secondary Daylighting Control
  ,                                       !- Illuminance Map Name
  ,                                       !- Group Rendering Name
  {37cabd35-44b4-4163-a45e-dda78231efb0}, !- Thermostat Name
  No;                                     !- Use Ideal Air Loads

OS:Node,
  {f305c521-f651-4264-9710-e72bf55f958e}, !- Handle
  Node 1,                                 !- Name
  {a61d5b77-84fa-4b4c-80c8-4e394c2c1bce}, !- Inlet Port
  ;                                       !- Outlet Port

OS:Connection,
  {a61d5b77-84fa-4b4c-80c8-4e394c2c1bce}, !- Handle
  {0cfe6d99-7883-48a8-bb37-7402a9e5de7e}, !- Source Object
  11,                                     !- Outlet Port
  {f305c521-f651-4264-9710-e72bf55f958e}, !- Target Object
  2;                                      !- Inlet Port

OS:PortList,
  {94e7bef0-57e6-40eb-b90a-1fced1cd629f}, !- Handle
  {0cfe6d99-7883-48a8-bb37-7402a9e5de7e}; !- HVAC Component

OS:PortList,
  {705f197b-6559-4917-a661-eff4a3d4a944}, !- Handle
  {0cfe6d99-7883-48a8-bb37-7402a9e5de7e}; !- HVAC Component

OS:PortList,
  {b02486ea-07d1-4a7c-8fe8-07ce0c783187}, !- Handle
  {0cfe6d99-7883-48a8-bb37-7402a9e5de7e}; !- HVAC Component

OS:Sizing:Zone,
  {a715ced0-68f2-47a1-80fb-50d6ff471a73}, !- Handle
  {0cfe6d99-7883-48a8-bb37-7402a9e5de7e}, !- Zone or ZoneList Name
  SupplyAirTemperature,                   !- Zone Cooling Design Supply Air Temperature Input Method
  14,                                     !- Zone Cooling Design Supply Air Temperature {C}
  11.11,                                  !- Zone Cooling Design Supply Air Temperature Difference {deltaC}
  SupplyAirTemperature,                   !- Zone Heating Design Supply Air Temperature Input Method
  40,                                     !- Zone Heating Design Supply Air Temperature {C}
  11.11,                                  !- Zone Heating Design Supply Air Temperature Difference {deltaC}
  0.0085,                                 !- Zone Cooling Design Supply Air Humidity Ratio {kg-H2O/kg-air}
  0.008,                                  !- Zone Heating Design Supply Air Humidity Ratio {kg-H2O/kg-air}
  ,                                       !- Zone Heating Sizing Factor
  ,                                       !- Zone Cooling Sizing Factor
  DesignDay,                              !- Cooling Design Air Flow Method
  ,                                       !- Cooling Design Air Flow Rate {m3/s}
  ,                                       !- Cooling Minimum Air Flow per Zone Floor Area {m3/s-m2}
  ,                                       !- Cooling Minimum Air Flow {m3/s}
  ,                                       !- Cooling Minimum Air Flow Fraction
  DesignDay,                              !- Heating Design Air Flow Method
  ,                                       !- Heating Design Air Flow Rate {m3/s}
  ,                                       !- Heating Maximum Air Flow per Zone Floor Area {m3/s-m2}
  ,                                       !- Heating Maximum Air Flow {m3/s}
  ,                                       !- Heating Maximum Air Flow Fraction
  No,                                     !- Account for Dedicated Outdoor Air System
  NeutralSupplyAir,                       !- Dedicated Outdoor Air System Control Strategy
  autosize,                               !- Dedicated Outdoor Air Low Setpoint Temperature for Design {C}
  autosize;                               !- Dedicated Outdoor Air High Setpoint Temperature for Design {C}

OS:ZoneHVAC:EquipmentList,
  {e72c967e-1ba5-4c8f-869d-a19b8313c250}, !- Handle
  Zone HVAC Equipment List 1,             !- Name
  {0cfe6d99-7883-48a8-bb37-7402a9e5de7e}, !- Thermal Zone
  ,                                       !- Load Distribution Scheme
  {736fad63-224f-4adf-b279-2c14a3670fe4}, !- Zone Equipment 1
  1,                                      !- Zone Equipment Cooling Sequence 1
  1,                                      !- Zone Equipment Heating or No-Load Sequence 1
  ,                                       !- Zone Equipment Sequential Cooling Fraction Schedule Name 1
  ;                                       !- Zone Equipment Sequential Heating Fraction Schedule Name 1

OS:Space,
  {a7d7c82f-402e-47bf-be92-3d3c9fb1a568}, !- Handle
  living space,                           !- Name
  {bb890d68-7e10-4cc9-b772-b2083c7252c7}, !- Space Type Name
  ,                                       !- Default Construction Set Name
  ,                                       !- Default Schedule Set Name
  ,                                       !- Direction of Relative North {deg}
  ,                                       !- X Origin {m}
  ,                                       !- Y Origin {m}
  ,                                       !- Z Origin {m}
  ,                                       !- Building Story Name
  {0cfe6d99-7883-48a8-bb37-7402a9e5de7e}, !- Thermal Zone Name
  ,                                       !- Part of Total Floor Area
  ,                                       !- Design Specification Outdoor Air Object Name
  {7c714805-be5d-44c0-9dde-68e87c47a5a0}; !- Building Unit Name

OS:Surface,
  {536de5a0-a966-414f-8400-033d69b99962}, !- Handle
  Surface 1,                              !- Name
  Floor,                                  !- Surface Type
  {84eab2f9-54c3-4806-8563-0b1d4c94a068}, !- Construction Name
  {a7d7c82f-402e-47bf-be92-3d3c9fb1a568}, !- Space Name
  Adiabatic,                              !- Outside Boundary Condition
  ,                                       !- Outside Boundary Condition Object
  NoSun,                                  !- Sun Exposure
  NoWind,                                 !- Wind Exposure
  ,                                       !- View Factor to Ground
  ,                                       !- Number of Vertices
  0, -13.7950203746134, 2.4384,           !- X,Y,Z Vertex 1 {m}
  0, 0, 2.4384,                           !- X,Y,Z Vertex 2 {m}
  7.66390020811858, 0, 2.4384,            !- X,Y,Z Vertex 3 {m}
  7.66390020811858, -13.7950203746134, 2.4384; !- X,Y,Z Vertex 4 {m}

OS:Surface,
  {82ee93f4-45c9-47b2-8b92-77072574d232}, !- Handle
  Surface 2,                              !- Name
  Wall,                                   !- Surface Type
  {59a7829d-f198-4821-8ef5-96b4ff815780}, !- Construction Name
  {a7d7c82f-402e-47bf-be92-3d3c9fb1a568}, !- Space Name
  Outdoors,                               !- Outside Boundary Condition
  ,                                       !- Outside Boundary Condition Object
  SunExposed,                             !- Sun Exposure
  WindExposed,                            !- Wind Exposure
  ,                                       !- View Factor to Ground
  ,                                       !- Number of Vertices
  0, 0, 4.8768,                           !- X,Y,Z Vertex 1 {m}
  0, 0, 2.4384,                           !- X,Y,Z Vertex 2 {m}
  0, -13.7950203746134, 2.4384,           !- X,Y,Z Vertex 3 {m}
  0, -13.7950203746134, 4.8768;           !- X,Y,Z Vertex 4 {m}

OS:Surface,
  {96b303fb-f832-4636-a280-64aac2e194a9}, !- Handle
  Surface 3,                              !- Name
  Wall,                                   !- Surface Type
  {59a7829d-f198-4821-8ef5-96b4ff815780}, !- Construction Name
  {a7d7c82f-402e-47bf-be92-3d3c9fb1a568}, !- Space Name
  Outdoors,                               !- Outside Boundary Condition
  ,                                       !- Outside Boundary Condition Object
  SunExposed,                             !- Sun Exposure
  WindExposed,                            !- Wind Exposure
  ,                                       !- View Factor to Ground
  ,                                       !- Number of Vertices
  7.66390020811858, 0, 4.8768,            !- X,Y,Z Vertex 1 {m}
  7.66390020811858, 0, 2.4384,            !- X,Y,Z Vertex 2 {m}
  0, 0, 2.4384,                           !- X,Y,Z Vertex 3 {m}
  0, 0, 4.8768;                           !- X,Y,Z Vertex 4 {m}

OS:Surface,
  {d9dc9512-6944-458a-a4e0-ca93a206096e}, !- Handle
  Surface 4,                              !- Name
  Wall,                                   !- Surface Type
  {59a7829d-f198-4821-8ef5-96b4ff815780}, !- Construction Name
  {a7d7c82f-402e-47bf-be92-3d3c9fb1a568}, !- Space Name
  Outdoors,                               !- Outside Boundary Condition
  ,                                       !- Outside Boundary Condition Object
  SunExposed,                             !- Sun Exposure
  WindExposed,                            !- Wind Exposure
  ,                                       !- View Factor to Ground
  ,                                       !- Number of Vertices
  7.66390020811858, -13.7950203746134, 4.8768, !- X,Y,Z Vertex 1 {m}
  7.66390020811858, -13.7950203746134, 2.4384, !- X,Y,Z Vertex 2 {m}
  7.66390020811858, 0, 2.4384,            !- X,Y,Z Vertex 3 {m}
  7.66390020811858, 0, 4.8768;            !- X,Y,Z Vertex 4 {m}

OS:Surface,
  {cdd6cd23-a5a5-413c-85cc-a2aaab9a3c12}, !- Handle
  Surface 5,                              !- Name
  Wall,                                   !- Surface Type
  {59a7829d-f198-4821-8ef5-96b4ff815780}, !- Construction Name
  {a7d7c82f-402e-47bf-be92-3d3c9fb1a568}, !- Space Name
  Outdoors,                               !- Outside Boundary Condition
  ,                                       !- Outside Boundary Condition Object
  SunExposed,                             !- Sun Exposure
  WindExposed,                            !- Wind Exposure
  ,                                       !- View Factor to Ground
  ,                                       !- Number of Vertices
  1.04865714285714, -13.7950203746134, 2.43839969500809, !- X,Y,Z Vertex 1 {m}
  7.66390020811858, -13.7950203746134, 2.4384, !- X,Y,Z Vertex 2 {m}
  7.66390020811858, -13.7950203746134, 4.8768, !- X,Y,Z Vertex 3 {m}
  1.04865714285714, -13.7950203746134, 4.87680030499191; !- X,Y,Z Vertex 4 {m}

OS:Surface,
  {f1f43218-7515-4a4f-8495-e7f141b08019}, !- Handle
  Surface 6,                              !- Name
  RoofCeiling,                            !- Surface Type
  {1fe960e2-9a4f-4b65-929f-0efdc3fc2eeb}, !- Construction Name
  {a7d7c82f-402e-47bf-be92-3d3c9fb1a568}, !- Space Name
  Outdoors,                               !- Outside Boundary Condition
  ,                                       !- Outside Boundary Condition Object
  SunExposed,                             !- Sun Exposure
  WindExposed,                            !- Wind Exposure
  ,                                       !- View Factor to Ground
  ,                                       !- Number of Vertices
  7.66390020811858, -13.7950203746134, 4.8768, !- X,Y,Z Vertex 1 {m}
  7.66390020811858, 0, 4.8768,            !- X,Y,Z Vertex 2 {m}
  0, 0, 4.8768,                           !- X,Y,Z Vertex 3 {m}
  0, -13.7950203746134, 4.8768;           !- X,Y,Z Vertex 4 {m}

OS:SpaceType,
  {bb890d68-7e10-4cc9-b772-b2083c7252c7}, !- Handle
  Space Type 1,                           !- Name
  ,                                       !- Default Construction Set Name
  ,                                       !- Default Schedule Set Name
  ,                                       !- Group Rendering Name
  ,                                       !- Design Specification Outdoor Air Object Name
  ,                                       !- Standards Template
  ,                                       !- Standards Building Type
  living;                                 !- Standards Space Type

OS:ShadingSurface,
  {b10a50b3-5e73-49b6-85b3-5fba6e1b3c41}, !- Handle
  Corridor shading,                       !- Name
  ,                                       !- Construction Name
  {564a0845-55ca-451d-a7d3-300ca562ea0c}, !- Shading Surface Group Name
  ,                                       !- Transmittance Schedule Name
  ,                                       !- Number of Vertices
  0, -16.8430203746134, 4.8768,           !- X,Y,Z Vertex 1 {m}
  7.66390020811858, -16.8430203746134, 4.8768, !- X,Y,Z Vertex 2 {m}
  7.66390020811858, -13.7950203746134, 4.8768, !- X,Y,Z Vertex 3 {m}
  0, -13.7950203746134, 4.8768;           !- X,Y,Z Vertex 4 {m}

OS:ShadingSurfaceGroup,
  {564a0845-55ca-451d-a7d3-300ca562ea0c}, !- Handle
  Shading Surface Group 1,                !- Name
  Building;                               !- Shading Surface Type

OS:BuildingUnit,
  {7c714805-be5d-44c0-9dde-68e87c47a5a0}, !- Handle
  unit 1,                                 !- Name
  ,                                       !- Rendering Color
  Residential;                            !- Building Unit Type

OS:AdditionalProperties,
  {07e4ccfd-eb98-4f29-8bac-047761e7aa64}, !- Handle
  {7c714805-be5d-44c0-9dde-68e87c47a5a0}, !- Object Name
  NumberOfBedrooms,                       !- Feature Name 1
  Integer,                                !- Feature Data Type 1
  2,                                      !- Feature Value 1
  NumberOfBathrooms,                      !- Feature Name 2
  Double,                                 !- Feature Data Type 2
  1.5,                                    !- Feature Value 2
  NumberOfOccupants,                      !- Feature Name 3
  Double,                                 !- Feature Data Type 3
  2,                                      !- Feature Value 3
  SizingInfoMechVentType,                 !- Feature Name 4
  String,                                 !- Feature Data Type 4
  none,                                   !- Feature Value 4
  SizingInfoMechVentTotalEfficiency,      !- Feature Name 5
  Double,                                 !- Feature Data Type 5
  0,                                      !- Feature Value 5
  SizingInfoMechVentLatentEffectiveness,  !- Feature Name 6
  Double,                                 !- Feature Data Type 6
  0,                                      !- Feature Value 6
  SizingInfoMechVentApparentSensibleEffectiveness, !- Feature Name 7
  Double,                                 !- Feature Data Type 7
  0,                                      !- Feature Value 7
  SizingInfoMechVentWholeHouseRate,       !- Feature Name 8
  Double,                                 !- Feature Data Type 8
  0,                                      !- Feature Value 8
  SizingInfoDuctsSupplyRvalue,            !- Feature Name 9
  Double,                                 !- Feature Data Type 9
  0,                                      !- Feature Value 9
  SizingInfoDuctsReturnRvalue,            !- Feature Name 10
  Double,                                 !- Feature Data Type 10
  0,                                      !- Feature Value 10
  SizingInfoDuctsSupplyLoss,              !- Feature Name 11
  Double,                                 !- Feature Data Type 11
  0.066633366633366636,                   !- Feature Value 11
  SizingInfoDuctsReturnLoss,              !- Feature Name 12
  Double,                                 !- Feature Data Type 12
  0.033366633366633376,                   !- Feature Value 12
  SizingInfoDuctsSupplySurfaceArea,       !- Feature Name 13
  Double,                                 !- Feature Data Type 13
  307.25999999999908,                     !- Feature Value 13
  SizingInfoDuctsReturnSurfaceArea,       !- Feature Name 14
  Double,                                 !- Feature Data Type 14
  56.899999999999835,                     !- Feature Value 14
  SizingInfoDuctsLocationZone,            !- Feature Name 15
  String,                                 !- Feature Data Type 15
  living zone,                            !- Feature Value 15
  SizingInfoDuctsLocationFrac,            !- Feature Name 16
  Double,                                 !- Feature Data Type 16
  1;                                      !- Feature Value 16

OS:External:File,
  {c3eb01af-34dc-4638-932e-1ee71ceb8e9e}, !- Handle
  schedules.csv,                          !- Name
  schedules.csv;                          !- File Name

OS:Schedule:File,
  {24fbc35d-aafb-468b-be6e-43d4122a8dc7}, !- Handle
  occupants,                              !- Name
  {910538f8-5ca4-41e0-a1fa-83268917a2d1}, !- Schedule Type Limits Name
  {c3eb01af-34dc-4638-932e-1ee71ceb8e9e}, !- External File Name
  1,                                      !- Column Number
  1,                                      !- Rows to Skip at Top
  8760,                                   !- Number of Hours of Data
  ,                                       !- Column Separator
  ,                                       !- Interpolate to Timestep
  15;                                     !- Minutes per Item

OS:Schedule:Constant,
  {14ebe117-9c34-438f-8294-07acfb084ff7}, !- Handle
  res occupants activity schedule,        !- Name
  {059855e8-9298-4ee1-8ee4-92528ea56545}, !- Schedule Type Limits Name
  112.539290946133;                       !- Value

OS:People:Definition,
  {713cf107-6b2e-4595-b4c0-27ea0060a4e1}, !- Handle
  res occupants|living space,             !- Name
  People,                                 !- Number of People Calculation Method
  2,                                      !- Number of People {people}
  ,                                       !- People per Space Floor Area {person/m2}
  ,                                       !- Space Floor Area per Person {m2/person}
  0.319734,                               !- Fraction Radiant
  0.573,                                  !- Sensible Heat Fraction
  0,                                      !- Carbon Dioxide Generation Rate {m3/s-W}
  No,                                     !- Enable ASHRAE 55 Comfort Warnings