
OS:Version,
  {1aeee376-5d1b-4a7e-9aa0-c676813466be}, !- Handle
  3.3.0;                                  !- Version Identifier

OS:Building,
  {6f0303c7-58b2-4ccc-b5ae-672adb8a1efe}, !- Handle
  Building 1,                             !- Name
  ,                                       !- Building Sector Type
  135,                                    !- North Axis {deg}
  ,                                       !- Nominal Floor to Floor Height {m}
  ,                                       !- Space Type Name
  ,                                       !- Default Construction Set Name
  ,                                       !- Default Schedule Set Name
  2,                                      !- Standards Number of Stories
  2,                                      !- Standards Number of Above Ground Stories
  ,                                       !- Standards Template
  singlefamilydetached,                   !- Standards Building Type
  1;                                      !- Standards Number of Living Units

OS:Facility,
  {f0d4e896-c7f0-43af-ba4a-a8d8b4bfb3a0}; !- Handle

OS:Site,
  {e6fac27e-c31a-491f-9e73-4feb940d276f}, !- Handle
  Denver-Aurora-Buckley AFB,              !- Name
  39.72,                                  !- Latitude {deg}
  -104.75,                                !- Longitude {deg}
  -7,                                     !- Time Zone {hr}
  1726,                                   !- Elevation {m}
  Suburbs;                                !- Terrain

OS:SimulationControl,
  {548b727d-f72b-4afd-8d03-c939c7418cab}, !- Handle
  ,                                       !- Do Zone Sizing Calculation
  ,                                       !- Do System Sizing Calculation
  ,                                       !- Do Plant Sizing Calculation
  No;                                     !- Run Simulation for Sizing Periods

OS:Sizing:Parameters,
  {458fe64b-53b7-4ddf-b8c7-23665dd8cf66}, !- Handle
  1.25,                                   !- Heating Sizing Factor
  1.15;                                   !- Cooling Sizing Factor

OS:Timestep,
  {8e5f5a47-2e85-418a-9b9a-bb5252bb4de7}, !- Handle
  4;                                      !- Number of Timesteps per Hour

OS:ShadowCalculation,
  {fed6ba5f-c671-4b74-943a-0707eb4cb0a1}, !- Handle
  PolygonClipping,                        !- Shading Calculation Method
  ,                                       !- Shading Calculation Update Frequency Method
  20,                                     !- Shading Calculation Update Frequency
  200,                                    !- Maximum Figures in Shadow Overlap Calculations
  ,                                       !- Polygon Clipping Algorithm
  512,                                    !- Pixel Counting Resolution
  DetailedSkyDiffuseModeling,             !- Sky Diffuse Modeling Algorithm
  No,                                     !- Output External Shading Calculation Results
  No,                                     !- Disable Self-Shading Within Shading Zone Groups
  No;                                     !- Disable Self-Shading From Shading Zone Groups to Other Zones

OS:HeatBalanceAlgorithm,
  {ca244426-9e81-4e19-9607-fce53946cf85}, !- Handle
  ConductionTransferFunction,             !- Algorithm
  200;                                    !- Surface Temperature Upper Limit {C}

OS:RunPeriod,
  {da994acb-fa60-4720-b0b0-2ad809846a3b}, !- Handle
  Run Period 1,                           !- Name
  1,                                      !- Begin Month
  1,                                      !- Begin Day of Month
  12,                                     !- End Month
  31,                                     !- End Day of Month
  ,                                       !- Use Weather File Holidays and Special Days
  ,                                       !- Use Weather File Daylight Saving Period
  ,                                       !- Apply Weekend Holiday Rule
  ,                                       !- Use Weather File Rain Indicators
  ,                                       !- Use Weather File Snow Indicators
  ;                                       !- Number of Times Runperiod to be Repeated

OS:LifeCycleCost:Parameters,
  {7c7b3e60-04df-462e-8dd1-0dd7ba956fdf}, !- Handle
  ,                                       !- Analysis Type
  ,                                       !- Discounting Convention
  ,                                       !- Inflation Approach
  ,                                       !- Real Discount Rate
  ,                                       !- Nominal Discount Rate
  ,                                       !- Inflation
  ,                                       !- Base Date Month
  ,                                       !- Base Date Year
  ,                                       !- Service Date Month
  ,                                       !- Service Date Year
  ;                                       !- Length of Study Period in Years

OS:SurfaceConvectionAlgorithm:Outside,
  {fad1c5b2-6c70-472c-8e16-29f3b5b0e82a}, !- Handle
  DOE-2;                                  !- Algorithm

OS:SurfaceConvectionAlgorithm:Inside,
  {42a3d7e5-acb4-4e8d-8bda-2c6a32884631}, !- Handle
  TARP;                                   !- Algorithm

OS:ZoneCapacitanceMultiplier:ResearchSpecial,
  {9c68c14c-495c-4e87-93b4-14c626f648a0}, !- Handle
  ,                                       !- Temperature Capacity Multiplier
  15,                                     !- Humidity Capacity Multiplier
  ;                                       !- Carbon Dioxide Capacity Multiplier

OS:YearDescription,
  {83bde13e-f7ae-40c7-8cdf-b726e20ef808}, !- Handle
  ,                                       !- Calendar Year
  Sunday,                                 !- Day of Week for Start Day
  ;                                       !- Is Leap Year

OS:AdditionalProperties,
  {9cbede2f-7298-4a9b-b675-41f66eb88e0b}, !- Handle
  {6f0303c7-58b2-4ccc-b5ae-672adb8a1efe}, !- Object Name
  Building ID,                            !- Feature Name 1
  Integer,                                !- Feature Data Type 1
  77607,                                  !- Feature Value 1
  num_occupants,                          !- Feature Name 2
  Integer,                                !- Feature Data Type 2
  1,                                      !- Feature Value 2
  Schedules Path,                         !- Feature Name 3
  String,                                 !- Feature Data Type 3
  /var/simdata/openstudio/run/schedules.csv, !- Feature Value 3
  Total Units Modeled,                    !- Feature Name 4
  Integer,                                !- Feature Data Type 4
  1,                                      !- Feature Value 4
  has_water_heater_flue,                  !- Feature Name 5
  Boolean,                                !- Feature Data Type 5
  true,                                   !- Feature Value 5
  has_hvac_flue,                          !- Feature Name 6
  Boolean,                                !- Feature Data Type 6
  true,                                   !- Feature Value 6
  has_fireplace_chimney,                  !- Feature Name 7
  Boolean,                                !- Feature Data Type 7
  false;                                  !- Feature Value 7

OS:ClimateZones,
  {7de01801-b493-4f23-b16e-48e0f3e36e89}, !- Handle
  Building America,                       !- Climate Zone Institution Name 1
  ,                                       !- Climate Zone Document Name 1
  0,                                      !- Climate Zone Document Year 1
  Cold,                                   !- Climate Zone Value 1
  ASHRAE,                                 !- Climate Zone Institution Name 2
  ANSI/ASHRAE Standard 169,               !- Climate Zone Document Name 2
  2006,                                   !- Climate Zone Document Year 2
  ,                                       !- Climate Zone Value 2
  CEC,                                    !- Climate Zone Institution Name 3
  California Climate Zone Descriptions,   !- Climate Zone Document Name 3
  1995,                                   !- Climate Zone Document Year 3
  ;                                       !- Climate Zone Value 3

OS:Site:WaterMainsTemperature,
  {bb92656a-b846-4de3-8e72-97b176d9a79b}, !- Handle
  Correlation,                            !- Calculation Method
  ,                                       !- Temperature Schedule Name
  9.93505707762559,                       !- Annual Average Outdoor Air Temperature {C}
  27.6077092933948;                       !- Maximum Difference In Monthly Average Outdoor Air Temperatures {deltaC}

OS:RunPeriodControl:DaylightSavingTime,
  {5784956d-e93f-4b64-b0e6-a7bf694dc3b9}, !- Handle
  3/10,                                   !- Start Date
  11/3;                                   !- End Date

OS:Site:GroundTemperature:Deep,
  {8591a995-b553-4460-a8a0-797fec72d256}, !- Handle
  9.93505707762559,                       !- January Deep Ground Temperature {C}
  9.93505707762559,                       !- February Deep Ground Temperature {C}
  9.93505707762559,                       !- March Deep Ground Temperature {C}
  9.93505707762559,                       !- April Deep Ground Temperature {C}
  9.93505707762559,                       !- May Deep Ground Temperature {C}
  9.93505707762559,                       !- June Deep Ground Temperature {C}
  9.93505707762559,                       !- July Deep Ground Temperature {C}
  9.93505707762559,                       !- August Deep Ground Temperature {C}
  9.93505707762559,                       !- September Deep Ground Temperature {C}
  9.93505707762559,                       !- October Deep Ground Temperature {C}
  9.93505707762559,                       !- November Deep Ground Temperature {C}
  9.93505707762559;                       !- December Deep Ground Temperature {C}

OS:ThermalZone,
  {e5530b94-7608-4c07-aae4-9734a2e4f775}, !- Handle
  living zone,                            !- Name
  ,                                       !- Multiplier
  ,                                       !- Ceiling Height {m}
  ,                                       !- Volume {m3}
  ,                                       !- Floor Area {m2}
  ,                                       !- Zone Inside Convection Algorithm
  ,                                       !- Zone Outside Convection Algorithm
  ,                                       !- Zone Conditioning Equipment List Name
  {be5592ab-5af2-49fb-aaa9-f83fea38552a}, !- Zone Air Inlet Port List
  {acd5d256-d4ab-4be7-984b-246bac4502ba}, !- Zone Air Exhaust Port List
  {a69611e4-13bf-4e9c-adb7-2e67872d6814}, !- Zone Air Node Name
  {b6098368-96af-4275-bc78-ce02e452babd}, !- Zone Return Air Port List
  ,                                       !- Primary Daylighting Control Name
  ,                                       !- Fraction of Zone Controlled by Primary Daylighting Control
  ,                                       !- Secondary Daylighting Control Name
  ,                                       !- Fraction of Zone Controlled by Secondary Daylighting Control
  ,                                       !- Illuminance Map Name
  {fe29b7b1-e2dd-44dc-9a73-9b569e98ebb7}, !- Group Rendering Name
  {eb281a5c-f6f0-4508-b97a-84c875b1aa85}, !- Thermostat Name
  No;                                     !- Use Ideal Air Loads

OS:Node,
  {5f2ae55b-b6f2-482b-b766-a5e215b94caa}, !- Handle
  Node 1,                                 !- Name
  {a69611e4-13bf-4e9c-adb7-2e67872d6814}, !- Inlet Port
  ;                                       !- Outlet Port

OS:Connection,
  {a69611e4-13bf-4e9c-adb7-2e67872d6814}, !- Handle
  {e5530b94-7608-4c07-aae4-9734a2e4f775}, !- Source Object
  11,                                     !- Outlet Port
  {5f2ae55b-b6f2-482b-b766-a5e215b94caa}, !- Target Object
  2;                                      !- Inlet Port

OS:PortList,
  {be5592ab-5af2-49fb-aaa9-f83fea38552a}, !- Handle
  {e5530b94-7608-4c07-aae4-9734a2e4f775}, !- HVAC Component
  {6880b032-326a-4c51-aa99-a7ee62625d2e}, !- Port 1
  {330130d9-fa26-4d4c-9210-df084f0ad505}; !- Port 2

OS:PortList,
  {acd5d256-d4ab-4be7-984b-246bac4502ba}, !- Handle
  {e5530b94-7608-4c07-aae4-9734a2e4f775}; !- HVAC Component

OS:PortList,
  {b6098368-96af-4275-bc78-ce02e452babd}, !- Handle
  {e5530b94-7608-4c07-aae4-9734a2e4f775}, !- HVAC Component
  {10c015cf-67e5-4891-a5b4-49485531e71c}, !- Port 1
  {a079b95d-dfb7-420c-bd1b-0faab5aa9f8a}; !- Port 2

OS:Sizing:Zone,
  {0545503c-4651-463b-bc5f-0cfa01b50277}, !- Handle
  {e5530b94-7608-4c07-aae4-9734a2e4f775}, !- Zone or ZoneList Name
  SupplyAirTemperature,                   !- Zone Cooling Design Supply Air Temperature Input Method
  14,                                     !- Zone Cooling Design Supply Air Temperature {C}
  11.11,                                  !- Zone Cooling Design Supply Air Temperature Difference {deltaC}
  SupplyAirTemperature,                   !- Zone Heating Design Supply Air Temperature Input Method
  40,                                     !- Zone Heating Design Supply Air Temperature {C}
  11.11,                                  !- Zone Heating Design Supply Air Temperature Difference {deltaC}
  0.0085,                                 !- Zone Cooling Design Supply Air Humidity Ratio {kg-H2O/kg-air}
  0.008,                                  !- Zone Heating Design Supply Air Humidity Ratio {kg-H2O/kg-air}
  ,                                       !- Zone Heating Sizing Factor
  ,                                       !- Zone Cooling Sizing Factor
  DesignDay,                              !- Cooling Design Air Flow Method
  ,                                       !- Cooling Design Air Flow Rate {m3/s}
  ,                                       !- Cooling Minimum Air Flow per Zone Floor Area {m3/s-m2}
  ,                                       !- Cooling Minimum Air Flow {m3/s}
  ,                                       !- Cooling Minimum Air Flow Fraction
  DesignDay,                              !- Heating Design Air Flow Method
  ,                                       !- Heating Design Air Flow Rate {m3/s}
  ,                                       !- Heating Maximum Air Flow per Zone Floor Area {m3/s-m2}
  ,                                       !- Heating Maximum Air Flow {m3/s}
  ,                                       !- Heating Maximum Air Flow Fraction
  No,                                     !- Account for Dedicated Outdoor Air System
  NeutralSupplyAir,                       !- Dedicated Outdoor Air System Control Strategy
  autosize,                               !- Dedicated Outdoor Air Low Setpoint Temperature for Design {C}
  autosize;                               !- Dedicated Outdoor Air High Setpoint Temperature for Design {C}

OS:ZoneHVAC:EquipmentList,
  {e7c01da5-43e6-4a19-b6a7-5f1ec6a40e41}, !- Handle
  Zone HVAC Equipment List 1,             !- Name
  {e5530b94-7608-4c07-aae4-9734a2e4f775}, !- Thermal Zone
  SequentialLoad,                         !- Load Distribution Scheme
  {7ab79add-6c85-4870-8627-b2f4a90b6c6b}, !- Zone Equipment 1
  1,                                      !- Zone Equipment Cooling Sequence 1
  1,                                      !- Zone Equipment Heating or No-Load Sequence 1
  ,                                       !- Zone Equipment Sequential Cooling Fraction Schedule Name 1
  ,                                       !- Zone Equipment Sequential Heating Fraction Schedule Name 1
  {c8bb3c4e-c9ba-46ba-b234-e6bdbfa97392}, !- Zone Equipment 2
  2,                                      !- Zone Equipment Cooling Sequence 2
  2,                                      !- Zone Equipment Heating or No-Load Sequence 2
  ,                                       !- Zone Equipment Sequential Cooling Fraction Schedule Name 2
  ;                                       !- Zone Equipment Sequential Heating Fraction Schedule Name 2

OS:Space,
  {05be1f48-7095-4dd3-b08d-9e33c1815fa3}, !- Handle
  living space,                           !- Name
  {05cc0df1-a885-4ded-bda1-015b1b4f7145}, !- Space Type Name
  ,                                       !- Default Construction Set Name
  ,                                       !- Default Schedule Set Name
  -0,                                     !- Direction of Relative North {deg}
  0,                                      !- X Origin {m}
  0,                                      !- Y Origin {m}
  0,                                      !- Z Origin {m}
  ,                                       !- Building Story Name
  {e5530b94-7608-4c07-aae4-9734a2e4f775}, !- Thermal Zone Name
  ,                                       !- Part of Total Floor Area
  ,                                       !- Design Specification Outdoor Air Object Name
  {c81d5987-5d71-4402-ad97-c2eec2022966}; !- Building Unit Name

OS:Surface,
  {b6ef8785-0051-4121-a5b9-a206e125c1a5}, !- Handle
  Surface 1,                              !- Name
  Floor,                                  !- Surface Type
  {b9fb6bb6-7846-4441-bc34-0e710f6c496e}, !- Construction Name
  {05be1f48-7095-4dd3-b08d-9e33c1815fa3}, !- Space Name
  Surface,                                !- Outside Boundary Condition
  {d2701244-db83-44d9-abbd-8c1b416cf1cb}, !- Outside Boundary Condition Object
  NoSun,                                  !- Sun Exposure
  NoWind,                                 !- Wind Exposure
  ,                                       !- View Factor to Ground
  ,                                       !- Number of Vertices
  0, 0, 0,                                !- X,Y,Z Vertex 1 {m}
  0, 9.22967639736085, 0,                 !- X,Y,Z Vertex 2 {m}
  16.6134175152495, 9.22967639736085, 0,  !- X,Y,Z Vertex 3 {m}
  16.6134175152495, 0, 0;                 !- X,Y,Z Vertex 4 {m}

OS:Surface,
  {5dbcfa72-65f6-410d-92b9-4e85a07f72b4}, !- Handle
  Surface 2,                              !- Name
  Wall,                                   !- Surface Type
  {c6916f05-09c7-4fb1-821b-3fb9a9317891}, !- Construction Name
  {05be1f48-7095-4dd3-b08d-9e33c1815fa3}, !- Space Name
  Outdoors,                               !- Outside Boundary Condition
  ,                                       !- Outside Boundary Condition Object
  SunExposed,                             !- Sun Exposure
  WindExposed,                            !- Wind Exposure
  ,                                       !- View Factor to Ground
  ,                                       !- Number of Vertices
  0, 9.22967639736085, 2.4384,            !- X,Y,Z Vertex 1 {m}
  0, 9.22967639736085, 0,                 !- X,Y,Z Vertex 2 {m}
  0, 0, 0,                                !- X,Y,Z Vertex 3 {m}
  0, 0, 2.4384;                           !- X,Y,Z Vertex 4 {m}

OS:Surface,
  {573ef2a0-04b0-43d0-a3f6-525af78c2acd}, !- Handle
  Surface 3,                              !- Name
  Wall,                                   !- Surface Type
  {c6916f05-09c7-4fb1-821b-3fb9a9317891}, !- Construction Name
  {05be1f48-7095-4dd3-b08d-9e33c1815fa3}, !- Space Name
  Outdoors,                               !- Outside Boundary Condition
  ,                                       !- Outside Boundary Condition Object
  SunExposed,                             !- Sun Exposure
  WindExposed,                            !- Wind Exposure
  ,                                       !- View Factor to Ground
  ,                                       !- Number of Vertices
  16.6134175152495, 9.22967639736085, 2.4384, !- X,Y,Z Vertex 1 {m}
  16.6134175152495, 9.22967639736085, 0,  !- X,Y,Z Vertex 2 {m}
  0, 9.22967639736085, 0,                 !- X,Y,Z Vertex 3 {m}
  0, 9.22967639736085, 2.4384;            !- X,Y,Z Vertex 4 {m}

OS:Surface,
  {32e82c4e-a104-4ece-bc4b-c199b9c355cc}, !- Handle
  Surface 4,                              !- Name
  Wall,                                   !- Surface Type
  {c6916f05-09c7-4fb1-821b-3fb9a9317891}, !- Construction Name
  {05be1f48-7095-4dd3-b08d-9e33c1815fa3}, !- Space Name
  Outdoors,                               !- Outside Boundary Condition
  ,                                       !- Outside Boundary Condition Object
  SunExposed,                             !- Sun Exposure
  WindExposed,                            !- Wind Exposure
  ,                                       !- View Factor to Ground
  ,                                       !- Number of Vertices
  16.6134175152495, 0, 2.4384,            !- X,Y,Z Vertex 1 {m}
  16.6134175152495, 0, 0,                 !- X,Y,Z Vertex 2 {m}
  16.6134175152495, 9.22967639736085, 0,  !- X,Y,Z Vertex 3 {m}
  16.6134175152495, 9.22967639736085, 2.4384; !- X,Y,Z Vertex 4 {m}

OS:Surface,
  {d5914326-2bb8-44dc-93aa-2ed96b391454}, !- Handle
  Surface 5,                              !- Name
  Wall,                                   !- Surface Type
  {c6916f05-09c7-4fb1-821b-3fb9a9317891}, !- Construction Name
  {05be1f48-7095-4dd3-b08d-9e33c1815fa3}, !- Space Name
  Outdoors,                               !- Outside Boundary Condition
  ,                                       !- Outside Boundary Condition Object
  SunExposed,                             !- Sun Exposure
  WindExposed,                            !- Wind Exposure
  ,                                       !- View Factor to Ground
  ,                                       !- Number of Vertices
  1.04865714285714, 0, 2.54287005230225e-07, !- X,Y,Z Vertex 1 {m}
  16.6134175152495, 0, 0,                 !- X,Y,Z Vertex 2 {m}
  16.6134175152495, 0, 2.4384,            !- X,Y,Z Vertex 3 {m}
  1.04865714285714, 0, 2.43839974571299;  !- X,Y,Z Vertex 4 {m}

OS:Surface,
  {e7008d62-04c0-4a23-b4ea-8bca122ebc03}, !- Handle
  Surface 6,                              !- Name
  RoofCeiling,                            !- Surface Type
  {33fcbe9f-6cd6-43ee-815d-768d8d382252}, !- Construction Name
  {05be1f48-7095-4dd3-b08d-9e33c1815fa3}, !- Space Name
  Surface,                                !- Outside Boundary Condition
  {b6bb510a-47cf-4bb1-884d-e861a5aa0b98}, !- Outside Boundary Condition Object
  NoSun,                                  !- Sun Exposure
  NoWind,                                 !- Wind Exposure
  ,                                       !- View Factor to Ground
  ,                                       !- Number of Vertices
  16.6134175152495, 0, 2.4384,            !- X,Y,Z Vertex 1 {m}
  16.6134175152495, 9.22967639736085, 2.4384, !- X,Y,Z Vertex 2 {m}
  0, 9.22967639736085, 2.4384,            !- X,Y,Z Vertex 3 {m}
  0, 0, 2.4384;                           !- X,Y,Z Vertex 4 {m}

OS:SpaceType,
  {05cc0df1-a885-4ded-bda1-015b1b4f7145}, !- Handle
  Space Type 1,                           !- Name
  ,                                       !- Default Construction Set Name
  ,                                       !- Default Schedule Set Name
  {58cfdce1-8b82-43c3-8c24-cd690405f825}, !- Group Rendering Name
  ,                                       !- Design Specification Outdoor Air Object Name
  ,                                       !- Standards Template
  ,                                       !- Standards Building Type
  living;                                 !- Standards Space Type

OS:Space,
  {21a4cae1-7c95-4475-bd13-bd98aa35d41c}, !- Handle
  living space|story 2,                   !- Name
  {05cc0df1-a885-4ded-bda1-015b1b4f7145}, !- Space Type Name
  ,                                       !- Default Construction Set Name
  ,                                       !- Default Schedule Set Name
  -0,                                     !- Direction of Relative North {deg}
  0,                                      !- X Origin {m}
  0,                                      !- Y Origin {m}
  2.4384,                                 !- Z Origin {m}
  ,                                       !- Building Story Name
  {e5530b94-7608-4c07-aae4-9734a2e4f775}, !- Thermal Zone Name
  ,                                       !- Part of Total Floor Area
  ,                                       !- Design Specification Outdoor Air Object Name
  {c81d5987-5d71-4402-ad97-c2eec2022966}; !- Building Unit Name

OS:Surface,
  {b6bb510a-47cf-4bb1-884d-e861a5aa0b98}, !- Handle
  Surface 7,                              !- Name
  Floor,                                  !- Surface Type
  {626e3d61-d302-45e4-9b08-cea4444a6016}, !- Construction Name
  {21a4cae1-7c95-4475-bd13-bd98aa35d41c}, !- Space Name
  Surface,                                !- Outside Boundary Condition
  {e7008d62-04c0-4a23-b4ea-8bca122ebc03}, !- Outside Boundary Condition Object
  NoSun,                                  !- Sun Exposure
  NoWind,                                 !- Wind Exposure
  ,                                       !- View Factor to Ground
  ,                                       !- Number of Vertices
  0, 0, 0,                                !- X,Y,Z Vertex 1 {m}
  0, 9.22967639736085, 0,                 !- X,Y,Z Vertex 2 {m}
  16.6134175152495, 9.22967639736085, 0,  !- X,Y,Z Vertex 3 {m}
  16.6134175152495, 0, 0;                 !- X,Y,Z Vertex 4 {m}

OS:Surface,
  {aeab9aa8-0529-494b-b7c3-c130c3ffda82}, !- Handle
  Surface 8,                              !- Name
  Wall,                                   !- Surface Type
  {c6916f05-09c7-4fb1-821b-3fb9a9317891}, !- Construction Name
  {21a4cae1-7c95-4475-bd13-bd98aa35d41c}, !- Space Name
  Outdoors,                               !- Outside Boundary Condition
  ,                                       !- Outside Boundary Condition Object
  SunExposed,                             !- Sun Exposure
  WindExposed,                            !- Wind Exposure
  ,                                       !- View Factor to Ground
  ,                                       !- Number of Vertices
  0, 9.22967639736085, 2.4384,            !- X,Y,Z Vertex 1 {m}
  0, 9.22967639736085, 0,                 !- X,Y,Z Vertex 2 {m}
  0, 0, 0,                                !- X,Y,Z Vertex 3 {m}
  0, 0, 2.4384;                           !- X,Y,Z Vertex 4 {m}

OS:Surface,
  {224500dd-6b9a-4b06-aeb9-fc9048d56eba}, !- Handle
  Surface 9,                              !- Name
  Wall,                                   !- Surface Type
  {c6916f05-09c7-4fb1-821b-3fb9a9317891}, !- Construction Name
  {21a4cae1-7c95-4475-bd13-bd98aa35d41c}, !- Space Name
  Outdoors,                               !- Outside Boundary Condition
  ,                                       !- Outside Boundary Condition Object
  SunExposed,                             !- Sun Exposure
  WindExposed,                            !- Wind Exposure
  ,                                       !- View Factor to Ground
  ,                                       !- Number of Vertices
  16.6134175152495, 9.22967639736085, 2.4384, !- X,Y,Z Vertex 1 {m}
  16.6134175152495, 9.22967639736085, 0,  !- X,Y,Z Vertex 2 {m}
  0, 9.22967639736085, 0,                 !- X,Y,Z Vertex 3 {m}
  0, 9.22967639736085, 2.4384;            !- X,Y,Z Vertex 4 {m}

OS:Surface,
  {9c221611-ce0f-4623-9512-1c7d8f99f8bc}, !- Handle
  Surface 10,                             !- Name
  Wall,                                   !- Surface Type
  {c6916f05-09c7-4fb1-821b-3fb9a9317891}, !- Construction Name
  {21a4cae1-7c95-4475-bd13-bd98aa35d41c}, !- Space Name
  Outdoors,                               !- Outside Boundary Condition
  ,                                       !- Outside Boundary Condition Object
  SunExposed,                             !- Sun Exposure
  WindExposed,                            !- Wind Exposure
  ,                                       !- View Factor to Ground
  ,                                       !- Number of Vertices
  16.6134175152495, 0, 2.4384,            !- X,Y,Z Vertex 1 {m}
  16.6134175152495, 0, 0,                 !- X,Y,Z Vertex 2 {m}
  16.6134175152495, 9.22967639736085, 0,  !- X,Y,Z Vertex 3 {m}
  16.6134175152495, 9.22967639736085, 2.4384; !- X,Y,Z Vertex 4 {m}

OS:Surface,
  {3af1b622-37ae-4f9f-8c50-2a35ec6ef9fc}, !- Handle
  Surface 11,                             !- Name
  Wall,                                   !- Surface Type
  {c6916f05-09c7-4fb1-821b-3fb9a9317891}, !- Construction Name
  {21a4cae1-7c95-4475-bd13-bd98aa35d41c}, !- Space Name
  Outdoors,                               !- Outside Boundary Condition
  ,                                       !- Outside Boundary Condition Object
  SunExposed,                             !- Sun Exposure
  WindExposed,                            !- Wind Exposure
  ,                                       !- View Factor to Ground
  ,                                       !- Number of Vertices
  0, 0, 2.4384,                           !- X,Y,Z Vertex 1 {m}
  0, 0, 0,                                !- X,Y,Z Vertex 2 {m}
  16.6134175152495, 0, 0,                 !- X,Y,Z Vertex 3 {m}
  16.6134175152495, 0, 2.4384;            !- X,Y,Z Vertex 4 {m}

OS:Surface,
  {a5a64cd6-9fae-414d-b7cf-08d1efb33e17}, !- Handle
  Surface 12,                             !- Name
  RoofCeiling,                            !- Surface Type
  {1104443c-48d5-4e1d-bb5e-d437aeadd29f}, !- Construction Name
  {21a4cae1-7c95-4475-bd13-bd98aa35d41c}, !- Space Name
  Surface,                                !- Outside Boundary Condition
  {f01571ca-53e9-4c42-b95d-e54f191c63a3}, !- Outside Boundary Condition Object
  NoSun,                                  !- Sun Exposure
  NoWind,                                 !- Wind Exposure
  ,                                       !- View Factor to Ground
  ,                                       !- Number of Vertices
  16.6134175152495, 0, 2.4384,            !- X,Y,Z Vertex 1 {m}
  16.6134175152495, 9.22967639736085, 2.4384, !- X,Y,Z Vertex 2 {m}
  0, 9.22967639736085, 2.4384,            !- X,Y,Z Vertex 3 {m}
  0, 0, 2.4384;                           !- X,Y,Z Vertex 4 {m}

OS:Surface,
  {f01571ca-53e9-4c42-b95d-e54f191c63a3}, !- Handle
  Surface 13,                             !- Name