
OS:Version,
  {2929708e-1768-4318-8db2-dc8b88b4489f}, !- Handle
  3.3.0;                                  !- Version Identifier

OS:Building,
  {13c50357-a5a4-43a9-8875-e55507bb64f6}, !- Handle
  Building 1,                             !- Name
  ,                                       !- Building Sector Type
  90,                                     !- North Axis {deg}
  ,                                       !- Nominal Floor to Floor Height {m}
  ,                                       !- Space Type Name
  ,                                       !- Default Construction Set Name
  ,                                       !- Default Schedule Set Name
  1,                                      !- Standards Number of Stories
  1,                                      !- Standards Number of Above Ground Stories
  ,                                       !- Standards Template
  singlefamilydetached,                   !- Standards Building Type
  1;                                      !- Standards Number of Living Units

OS:Facility,
  {ef8977f9-8ea8-49f1-b0b1-6db3fd9f00c6}; !- Handle

OS:Site,
  {d45399e3-e27c-4dd7-b907-5b0ba7589a27}, !- Handle
  Bartlesville Muni AP-Phillips Field_OK_USA, !- Name
  36.767,                                 !- Latitude {deg}
  -96.017,                                !- Longitude {deg}
  -6,                                     !- Time Zone {hr}
  218,                                    !- Elevation {m}
  Suburbs;                                !- Terrain

OS:SimulationControl,
  {27864393-bd49-4735-9fab-83d5b15ea0be}, !- Handle
  ,                                       !- Do Zone Sizing Calculation
  ,                                       !- Do System Sizing Calculation
  ,                                       !- Do Plant Sizing Calculation
  No;                                     !- Run Simulation for Sizing Periods

OS:Sizing:Parameters,
  {6fe78bc9-072d-4933-a023-e65149aff444}, !- Handle
  1.25,                                   !- Heating Sizing Factor
  1.15;                                   !- Cooling Sizing Factor

OS:Timestep,
  {a6636869-0fd7-4b1d-97a0-68a3cf5798ba}, !- Handle
  4;                                      !- Number of Timesteps per Hour

OS:ShadowCalculation,
  {2515e956-782e-47dc-b54e-53e9bf49b7a2}, !- Handle
  PolygonClipping,                        !- Shading Calculation Method
  ,                                       !- Shading Calculation Update Frequency Method
  20,                                     !- Shading Calculation Update Frequency
  200,                                    !- Maximum Figures in Shadow Overlap Calculations
  ,                                       !- Polygon Clipping Algorithm
  512,                                    !- Pixel Counting Resolution
  DetailedSkyDiffuseModeling,             !- Sky Diffuse Modeling Algorithm
  No,                                     !- Output External Shading Calculation Results
  No,                                     !- Disable Self-Shading Within Shading Zone Groups
  No;                                     !- Disable Self-Shading From Shading Zone Groups to Other Zones

OS:HeatBalanceAlgorithm,
  {3372afda-8386-4e90-b0ab-9dcb16368b73}, !- Handle
  ConductionTransferFunction,             !- Algorithm
  200;                                    !- Surface Temperature Upper Limit {C}

OS:RunPeriod,
  {9a416640-93ab-4dab-adca-3c4b72dcddc4}, !- Handle
  Run Period 1,                           !- Name
  1,                                      !- Begin Month
  1,                                      !- Begin Day of Month
  12,                                     !- End Month
  31,                                     !- End Day of Month
  ,                                       !- Use Weather File Holidays and Special Days
  ,                                       !- Use Weather File Daylight Saving Period
  ,                                       !- Apply Weekend Holiday Rule
  ,                                       !- Use Weather File Rain Indicators
  ,                                       !- Use Weather File Snow Indicators
  ;                                       !- Number of Times Runperiod to be Repeated

OS:LifeCycleCost:Parameters,
  {f2455fd1-18d0-4936-908c-749b89763d90}, !- Handle
  ,                                       !- Analysis Type
  ,                                       !- Discounting Convention
  ,                                       !- Inflation Approach
  ,                                       !- Real Discount Rate
  ,                                       !- Nominal Discount Rate
  ,                                       !- Inflation
  ,                                       !- Base Date Month
  ,                                       !- Base Date Year
  ,                                       !- Service Date Month
  ,                                       !- Service Date Year
  ;                                       !- Length of Study Period in Years

OS:SurfaceConvectionAlgorithm:Outside,
  {b609d939-7b08-41d4-bcd9-881cd7365061}, !- Handle
  DOE-2;                                  !- Algorithm

OS:SurfaceConvectionAlgorithm:Inside,
  {620b3ee1-611a-4f5b-ac23-b4a9080e796e}, !- Handle
  TARP;                                   !- Algorithm

OS:ZoneCapacitanceMultiplier:ResearchSpecial,
  {57d8dcae-91bc-4043-9fb8-d52f0477d666}, !- Handle
  ,                                       !- Temperature Capacity Multiplier
  15,                                     !- Humidity Capacity Multiplier
  ;                                       !- Carbon Dioxide Capacity Multiplier

OS:YearDescription,
  {9d8edddb-4c43-4ecf-8740-01cf6eedea1a}, !- Handle
  2018,                                   !- Calendar Year
  ,                                       !- Day of Week for Start Day
  ;                                       !- Is Leap Year

OS:AdditionalProperties,
  {28e42ec0-67b6-4a4a-ac2c-53fb47dbb112}, !- Handle
  {13c50357-a5a4-43a9-8875-e55507bb64f6}, !- Object Name
  Building ID,                            !- Feature Name 1
  Integer,                                !- Feature Data Type 1
  505333,                                 !- Feature Value 1
  num_occupants,                          !- Feature Name 2
  Integer,                                !- Feature Data Type 2
  1,                                      !- Feature Value 2
  Schedules Path,                         !- Feature Name 3
  String,                                 !- Feature Data Type 3
  /var/simdata/openstudio/run/schedules.csv, !- Feature Value 3
  Total Units Modeled,                    !- Feature Name 4
  Integer,                                !- Feature Data Type 4
  1,                                      !- Feature Value 4
  has_water_heater_flue,                  !- Feature Name 5
  Boolean,                                !- Feature Data Type 5
  true,                                   !- Feature Value 5
  has_hvac_flue,                          !- Feature Name 6
  Boolean,                                !- Feature Data Type 6
  true,                                   !- Feature Value 6
  has_fireplace_chimney,                  !- Feature Name 7
  Boolean,                                !- Feature Data Type 7
  false;                                  !- Feature Value 7

OS:ClimateZones,
  {17c55421-62fc-45e7-8454-3b26ef931bb0}, !- Handle
  Building America,                       !- Climate Zone Institution Name 1
  ,                                       !- Climate Zone Document Name 1
  0,                                      !- Climate Zone Document Year 1
  Mixed-Humid,                            !- Climate Zone Value 1
  ASHRAE,                                 !- Climate Zone Institution Name 2
  ANSI/ASHRAE Standard 169,               !- Climate Zone Document Name 2
  2006,                                   !- Climate Zone Document Year 2
  ,                                       !- Climate Zone Value 2
  CEC,                                    !- Climate Zone Institution Name 3
  California Climate Zone Descriptions,   !- Climate Zone Document Name 3
  1995,                                   !- Climate Zone Document Year 3
  ;                                       !- Climate Zone Value 3

OS:Site:WaterMainsTemperature,
  {f4747a14-90b9-439e-b70c-55beb2e29a3c}, !- Handle
  Correlation,                            !- Calculation Method
  ,                                       !- Temperature Schedule Name
  14.3259132420092,                       !- Annual Average Outdoor Air Temperature {C}
  25.2229838709677;                       !- Maximum Difference In Monthly Average Outdoor Air Temperatures {deltaC}

OS:RunPeriodControl:DaylightSavingTime,
  {2f42f24d-9d99-4685-affc-aacfa237fce2}, !- Handle
  3/10,                                   !- Start Date
  11/3;                                   !- End Date

OS:Site:GroundTemperature:Deep,
  {79d10cd7-c6b6-493d-9224-b320428d9501}, !- Handle
  14.3259132420092,                       !- January Deep Ground Temperature {C}
  14.3259132420092,                       !- February Deep Ground Temperature {C}
  14.3259132420092,                       !- March Deep Ground Temperature {C}
  14.3259132420092,                       !- April Deep Ground Temperature {C}
  14.3259132420092,                       !- May Deep Ground Temperature {C}
  14.3259132420092,                       !- June Deep Ground Temperature {C}
  14.3259132420092,                       !- July Deep Ground Temperature {C}
  14.3259132420092,                       !- August Deep Ground Temperature {C}
  14.3259132420092,                       !- September Deep Ground Temperature {C}
  14.3259132420092,                       !- October Deep Ground Temperature {C}
  14.3259132420092,                       !- November Deep Ground Temperature {C}
  14.3259132420092;                       !- December Deep Ground Temperature {C}

OS:ThermalZone,
  {62a4447b-ed95-400d-89f8-c69bbc52f2f7}, !- Handle
  living zone,                            !- Name
  ,                                       !- Multiplier
  ,                                       !- Ceiling Height {m}
  ,                                       !- Volume {m3}
  ,                                       !- Floor Area {m2}
  ,                                       !- Zone Inside Convection Algorithm
  ,                                       !- Zone Outside Convection Algorithm
  ,                                       !- Zone Conditioning Equipment List Name
  {72646f22-e0dd-473e-a725-6191f6be58c7}, !- Zone Air Inlet Port List
  {0cec6e82-de2d-41b4-9304-bc362c14684d}, !- Zone Air Exhaust Port List
  {cb2a03b6-8bfc-444b-87ce-7b9e14395fb9}, !- Zone Air Node Name
  {30c70b13-3621-417c-8aac-6266ea8bf64d}, !- Zone Return Air Port List
  ,                                       !- Primary Daylighting Control Name
  ,                                       !- Fraction of Zone Controlled by Primary Daylighting Control
  ,                                       !- Secondary Daylighting Control Name
  ,                                       !- Fraction of Zone Controlled by Secondary Daylighting Control
  ,                                       !- Illuminance Map Name
  {9b5d8740-341d-4fc6-bc1e-be4fbe587106}, !- Group Rendering Name
  {ce06d14f-39b2-4f6a-b6ba-ebfecae0d5dc}, !- Thermostat Name
  No;                                     !- Use Ideal Air Loads

OS:Node,
  {a1ac0ea7-24ba-42d5-9ffe-26aa07f9f857}, !- Handle
  Node 1,                                 !- Name
  {cb2a03b6-8bfc-444b-87ce-7b9e14395fb9}, !- Inlet Port
  ;                                       !- Outlet Port

OS:Connection,
  {cb2a03b6-8bfc-444b-87ce-7b9e14395fb9}, !- Handle
  {62a4447b-ed95-400d-89f8-c69bbc52f2f7}, !- Source Object
  11,                                     !- Outlet Port
  {a1ac0ea7-24ba-42d5-9ffe-26aa07f9f857}, !- Target Object
  2;                                      !- Inlet Port

OS:PortList,
  {72646f22-e0dd-473e-a725-6191f6be58c7}, !- Handle
  {62a4447b-ed95-400d-89f8-c69bbc52f2f7}, !- HVAC Component
  {c6314685-90a5-4af5-b113-1596982bb877}; !- Port 1

OS:PortList,
  {0cec6e82-de2d-41b4-9304-bc362c14684d}, !- Handle
  {62a4447b-ed95-400d-89f8-c69bbc52f2f7}, !- HVAC Component
  {8c33ee13-a14c-407d-a519-6f5d1c552fb7}; !- Port 1

OS:PortList,
  {30c70b13-3621-417c-8aac-6266ea8bf64d}, !- Handle
  {62a4447b-ed95-400d-89f8-c69bbc52f2f7}; !- HVAC Component

OS:Sizing:Zone,
  {83222897-3a1a-4ff2-a7fb-c71edbb81ca6}, !- Handle
  {62a4447b-ed95-400d-89f8-c69bbc52f2f7}, !- Zone or ZoneList Name
  SupplyAirTemperature,                   !- Zone Cooling Design Supply Air Temperature Input Method
  14,                                     !- Zone Cooling Design Supply Air Temperature {C}
  11.11,                                  !- Zone Cooling Design Supply Air Temperature Difference {deltaC}
  SupplyAirTemperature,                   !- Zone Heating Design Supply Air Temperature Input Method
  40,                                     !- Zone Heating Design Supply Air Temperature {C}
  11.11,                                  !- Zone Heating Design Supply Air Temperature Difference {deltaC}
  0.0085,                                 !- Zone Cooling Design Supply Air Humidity Ratio {kg-H2O/kg-air}
  0.008,                                  !- Zone Heating Design Supply Air Humidity Ratio {kg-H2O/kg-air}
  ,                                       !- Zone Heating Sizing Factor
  ,                                       !- Zone Cooling Sizing Factor
  DesignDay,                              !- Cooling Design Air Flow Method
  ,                                       !- Cooling Design Air Flow Rate {m3/s}
  ,                                       !- Cooling Minimum Air Flow per Zone Floor Area {m3/s-m2}
  ,                                       !- Cooling Minimum Air Flow {m3/s}
  ,                                       !- Cooling Minimum Air Flow Fraction
  DesignDay,                              !- Heating Design Air Flow Method
  ,                                       !- Heating Design Air Flow Rate {m3/s}
  ,                                       !- Heating Maximum Air Flow per Zone Floor Area {m3/s-m2}
  ,                                       !- Heating Maximum Air Flow {m3/s}
  ,                                       !- Heating Maximum Air Flow Fraction
  No,                                     !- Account for Dedicated Outdoor Air System
  NeutralSupplyAir,                       !- Dedicated Outdoor Air System Control Strategy
  autosize,                               !- Dedicated Outdoor Air Low Setpoint Temperature for Design {C}
  autosize;                               !- Dedicated Outdoor Air High Setpoint Temperature for Design {C}

OS:ZoneHVAC:EquipmentList,
  {87f24773-7444-443c-8b30-d26e1d8b188a}, !- Handle
  Zone HVAC Equipment List 1,             !- Name
  {62a4447b-ed95-400d-89f8-c69bbc52f2f7}, !- Thermal Zone
  SequentialLoad,                         !- Load Distribution Scheme
  {7f561e1e-de9f-40be-a959-a1f5f8962fa0}, !- Zone Equipment 1
  1,                                      !- Zone Equipment Cooling Sequence 1
  1,                                      !- Zone Equipment Heating or No-Load Sequence 1
  ,                                       !- Zone Equipment Sequential Cooling Fraction Schedule Name 1
  ,                                       !- Zone Equipment Sequential Heating Fraction Schedule Name 1
  {e8bae21d-6969-4ddf-b8f8-6a7a11c1374d}, !- Zone Equipment 2
  2,                                      !- Zone Equipment Cooling Sequence 2
  2,                                      !- Zone Equipment Heating or No-Load Sequence 2
  ,                                       !- Zone Equipment Sequential Cooling Fraction Schedule Name 2
  ;                                       !- Zone Equipment Sequential Heating Fraction Schedule Name 2

OS:Space,
  {56f362fc-1e18-40ac-a862-3ebfc9a4e7da}, !- Handle
  living space,                           !- Name
  {3880621e-d8ac-4953-8e7d-f4bd9316275f}, !- Space Type Name
  ,                                       !- Default Construction Set Name
  ,                                       !- Default Schedule Set Name
  -0,                                     !- Direction of Relative North {deg}
  0,                                      !- X Origin {m}
  0,                                      !- Y Origin {m}
  0,                                      !- Z Origin {m}
  ,                                       !- Building Story Name
  {62a4447b-ed95-400d-89f8-c69bbc52f2f7}, !- Thermal Zone Name
  ,                                       !- Part of Total Floor Area
  ,                                       !- Design Specification Outdoor Air Object Name
  {1053c13d-da4e-4748-8b48-cdeaadf25a41}; !- Building Unit Name

OS:Surface,
  {fdf7957b-1470-4a7c-af09-8e51a2521813}, !- Handle
  Surface 1,                              !- Name
  Floor,                                  !- Surface Type
  {9b2314e6-4454-4212-a140-d0f9aaf9d7fa}, !- Construction Name
  {56f362fc-1e18-40ac-a862-3ebfc9a4e7da}, !- Space Name
  Foundation,                             !- Outside Boundary Condition
  {726ae3c0-5a2e-4b90-91af-a0b940e26f6b}, !- Outside Boundary Condition Object
  NoSun,                                  !- Sun Exposure
  NoWind,                                 !- Wind Exposure
  ,                                       !- View Factor to Ground
  ,                                       !- Number of Vertices
  0, 0, 0,                                !- X,Y,Z Vertex 1 {m}
  0, 7.93521367072116, 0,                 !- X,Y,Z Vertex 2 {m}
  14.2833846072981, 7.93521367072116, 0,  !- X,Y,Z Vertex 3 {m}
  14.2833846072981, 0, 0;                 !- X,Y,Z Vertex 4 {m}

OS:Surface,
  {0413a0b7-46d7-41a5-bcf0-87a1ec3f74c9}, !- Handle
  Surface 2,                              !- Name
  Wall,                                   !- Surface Type
  {a54c078e-ac19-4bbb-9189-632c4c1c24ba}, !- Construction Name
  {56f362fc-1e18-40ac-a862-3ebfc9a4e7da}, !- Space Name
  Outdoors,                               !- Outside Boundary Condition
  ,                                       !- Outside Boundary Condition Object
  SunExposed,                             !- Sun Exposure
  WindExposed,                            !- Wind Exposure
  ,                                       !- View Factor to Ground
  ,                                       !- Number of Vertices
  0, 7.93521367072116, 2.4384,            !- X,Y,Z Vertex 1 {m}
  0, 7.93521367072116, 0,                 !- X,Y,Z Vertex 2 {m}
  0, 0, 0,                                !- X,Y,Z Vertex 3 {m}
  0, 0, 2.4384;                           !- X,Y,Z Vertex 4 {m}

OS:Surface,
  {df0457aa-dc1f-4a62-9920-bab0db62a14f}, !- Handle
  Surface 3,                              !- Name
  Wall,                                   !- Surface Type
  {a54c078e-ac19-4bbb-9189-632c4c1c24ba}, !- Construction Name
  {56f362fc-1e18-40ac-a862-3ebfc9a4e7da}, !- Space Name
  Outdoors,                               !- Outside Boundary Condition
  ,                                       !- Outside Boundary Condition Object
  SunExposed,                             !- Sun Exposure
  WindExposed,                            !- Wind Exposure
  ,                                       !- View Factor to Ground
  ,                                       !- Number of Vertices
  14.2833846072981, 7.93521367072116, 2.4384, !- X,Y,Z Vertex 1 {m}
  14.2833846072981, 7.93521367072116, 0,  !- X,Y,Z Vertex 2 {m}
  0, 7.93521367072116, 0,                 !- X,Y,Z Vertex 3 {m}
  0, 7.93521367072116, 2.4384;            !- X,Y,Z Vertex 4 {m}

OS:Surface,
  {09b7af94-e0bd-4f40-803d-1a7daf014fc2}, !- Handle
  Surface 4,                              !- Name
  Wall,                                   !- Surface Type
  {a54c078e-ac19-4bbb-9189-632c4c1c24ba}, !- Construction Name
  {56f362fc-1e18-40ac-a862-3ebfc9a4e7da}, !- Space Name
  Outdoors,                               !- Outside Boundary Condition
  ,                                       !- Outside Boundary Condition Object
  SunExposed,                             !- Sun Exposure
  WindExposed,                            !- Wind Exposure
  ,                                       !- View Factor to Ground
  ,                                       !- Number of Vertices
  14.2833846072981, 0, 2.4384,            !- X,Y,Z Vertex 1 {m}
  14.2833846072981, 0, 0,                 !- X,Y,Z Vertex 2 {m}
  14.2833846072981, 7.93521367072116, 0,  !- X,Y,Z Vertex 3 {m}
  14.2833846072981, 7.93521367072116, 2.4384; !- X,Y,Z Vertex 4 {m}

OS:Surface,
  {ea341445-9d96-4c87-a7a1-a7f079beef81}, !- Handle
  Surface 5,                              !- Name
  Wall,                                   !- Surface Type
  {a54c078e-ac19-4bbb-9189-632c4c1c24ba}, !- Construction Name
  {56f362fc-1e18-40ac-a862-3ebfc9a4e7da}, !- Space Name
  Outdoors,                               !- Outside Boundary Condition
  ,                                       !- Outside Boundary Condition Object
  SunExposed,                             !- Sun Exposure
  WindExposed,                            !- Wind Exposure
  ,                                       !- View Factor to Ground
  ,                                       !- Number of Vertices
  1.04865714285714, 0, 1.45748839219806e-07, !- X,Y,Z Vertex 1 {m}
  14.2833846072981, 0, 0,                 !- X,Y,Z Vertex 2 {m}
  14.2833846072981, 0, 2.4384,            !- X,Y,Z Vertex 3 {m}
  1.04865714285714, 0, 2.43839985425116;  !- X,Y,Z Vertex 4 {m}

OS:Surface,
  {11532fbc-2046-4e01-a3ff-b5eacadba82f}, !- Handle
  Surface 6,                              !- Name
  RoofCeiling,                            !- Surface Type
  {efbfba62-148f-491a-8861-e540b7aef44d}, !- Construction Name
  {56f362fc-1e18-40ac-a862-3ebfc9a4e7da}, !- Space Name
  Surface,                                !- Outside Boundary Condition
  {e9e13515-2a78-4cb9-b39c-120c7aa829c6}, !- Outside Boundary Condition Object
  NoSun,                                  !- Sun Exposure
  NoWind,                                 !- Wind Exposure
  ,                                       !- View Factor to Ground
  ,                                       !- Number of Vertices
  14.2833846072981, 0, 2.4384,            !- X,Y,Z Vertex 1 {m}
  14.2833846072981, 7.93521367072116, 2.4384, !- X,Y,Z Vertex 2 {m}
  0, 7.93521367072116, 2.4384,            !- X,Y,Z Vertex 3 {m}
  0, 0, 2.4384;                           !- X,Y,Z Vertex 4 {m}

OS:SpaceType,
  {3880621e-d8ac-4953-8e7d-f4bd9316275f}, !- Handle
  Space Type 1,                           !- Name
  ,                                       !- Default Construction Set Name
  ,                                       !- Default Schedule Set Name
  {d9be6c1a-3d6b-4ff1-b40d-460a25380eab}, !- Group Rendering Name
  ,                                       !- Design Specification Outdoor Air Object Name
  ,                                       !- Standards Template
  ,                                       !- Standards Building Type
  living;                                 !- Standards Space Type

OS:Surface,
  {e9e13515-2a78-4cb9-b39c-120c7aa829c6}, !- Handle
  Surface 7,                              !- Name
  Floor,                                  !- Surface Type
  {daea3cec-4db0-456e-876e-f3cf1b2a3c62}, !- Construction Name
  {4d6381f7-9c93-4ba3-9317-9f1e76c1e7de}, !- Space Name
  Surface,                                !- Outside Boundary Condition
  {11532fbc-2046-4e01-a3ff-b5eacadba82f}, !- Outside Boundary Condition Object
  NoSun,                                  !- Sun Exposure
  NoWind,                                 !- Wind Exposure
  ,                                       !- View Factor to Ground
  ,                                       !- Number of Vertices
  0, 7.93521367072116, 0,                 !- X,Y,Z Vertex 1 {m}
  14.2833846072981, 7.93521367072116, 0,  !- X,Y,Z Vertex 2 {m}
  14.2833846072981, 0, 0,                 !- X,Y,Z Vertex 3 {m}
  0, 0, 0;                                !- X,Y,Z Vertex 4 {m}

OS:Surface,
  {c164a91c-fb49-441a-8762-12c6d6fb0095}, !- Handle
  Surface 8,                              !- Name
  RoofCeiling,                            !- Surface Type
  {e00f9d2f-867c-4034-84fe-f1ad5320ffbf}, !- Construction Name
  {4d6381f7-9c93-4ba3-9317-9f1e76c1e7de}, !- Space Name
  Outdoors,                               !- Outside Boundary Condition
  ,                                       !- Outside Boundary Condition Object
  SunExposed,                             !- Sun Exposure
  WindExposed,                            !- Wind Exposure
  ,                                       !- View Factor to Ground
  ,                                       !- Number of Vertices
  14.2833846072981, 3.96760683536058, 2.28860341768029, !- X,Y,Z Vertex 1 {m}
  0, 3.96760683536058, 2.28860341768029,  !- X,Y,Z Vertex 2 {m}
  0, 0, 0.3048,                           !- X,Y,Z Vertex 3 {m}
  14.2833846072981, 0, 0.3048;            !- X,Y,Z Vertex 4 {m}

OS:Surface,
  {66b11ea7-741b-491c-91e2-13a722d3745f}, !- Handle
  Surface 9,                              !- Name
  RoofCeiling,                            !- Surface Type
  {e00f9d2f-867c-4034-84fe-f1ad5320ffbf}, !- Construction Name
  {4d6381f7-9c93-4ba3-9317-9f1e76c1e7de}, !- Space Name
  Outdoors,                               !- Outside Boundary Condition
  ,                                       !- Outside Boundary Condition Object
  SunExposed,                             !- Sun Exposure
  WindExposed,                            !- Wind Exposure
  ,                                       !- View Factor to Ground
  ,                                       !- Number of Vertices
  0, 3.96760683536058, 2.28860341768029,  !- X,Y,Z Vertex 1 {m}
  14.2833846072981, 3.96760683536058, 2.28860341768029, !- X,Y,Z Vertex 2 {m}
  14.2833846072981, 7.93521367072116, 0.3048, !- X,Y,Z Vertex 3 {m}
  0, 7.93521367072116, 0.3048;            !- X,Y,Z Vertex 4 {m}

OS:Surface,
  {9524b8b9-d499-4f4c-bcde-64fadb52fb3a}, !- Handle
  Surface 10,                             !- Name
  Wall,                                   !- Surface Type
  {a56a8af7-0ad1-46ee-adfd-3735fbe627b3}, !- Construction Name
  {4d6381f7-9c93-4ba3-9317-9f1e76c1e7de}, !- Space Name
  Outdoors,                               !- Outside Boundary Condition
  ,                                       !- Outside Boundary Condition Object
  SunExposed,                             !- Sun Exposure
  WindExposed,                            !- Wind Exposure
  ,                                       !- View Factor to Ground
  ,                                       !- Number of Vertices
  0, 3.96760683536058, 1.98380341768029,  !- X,Y,Z Vertex 1 {m}
  0, 7.93521367072116, 0,                 !- X,Y,Z Vertex 2 {m}
  0, 0, 0;                                !- X,Y,Z Vertex 3 {m}

OS:Surface,
  {60e48a9d-88fa-4532-97af-8d3a23196dcf}, !- Handle
  Surface 11,                             !- Name
  Wall,                                   !- Surface Type
  {a56a8af7-0ad1-46ee-adfd-3735fbe627b3}, !- Construction Name
  {4d6381f7-9c93-4ba3-9317-9f1e76c1e7de}, !- Space Name
  Outdoors,                               !- Outside Boundary Condition
  ,                                       !- Outside Boundary Condition Object
  SunExposed,                             !- Sun Exposure
  WindExposed,                            !- Wind Exposure
  ,                                       !- View Factor to Ground
  ,                                       !- Number of Vertices
  14.2833846072981, 3.96760683536058, 1.98380341768029, !- X,Y,Z Vertex 1 {m}
  14.2833846072981, 0, 0,                 !- X,Y,Z Vertex 2 {m}
  14.2833846072981, 7.93521367072116, 0;  !- X,Y,Z Vertex 3 {m}

OS:Space,
  {4d6381f7-9c93-4ba3-9317-9f1e76c1e7de}, !- Handle
  unfinished attic space,                 !- Name
  {2d8f8a7b-f7fb-4dbb-b4b5-3ade0bcca0a4}, !- Space Type Name
  ,                                       !- Default Construction Set Name
  ,                                       !- Default Schedule Set Name
  -0,                                     !- Direction of Relative North {deg}
  0,                                      !- X Origin {m}
  0,                                      !- Y Origin {m}
  2.4384,                                 !- Z Origin {m}
  ,                                       !- Building Story Name
  {fa104c8a-2863-4e78-bb11-cf1b676cc205}; !- Thermal Zone Name

OS:ThermalZone,
  {fa104c8a-2863-4e78-bb11-cf1b676cc205}, !- Handle
  unfinished attic zone,                  !- Name
  ,                                       !- Multiplier
  ,                                       !- Ceiling Height {m}
  ,                                       !- Volume {m3}
  ,                                       !- Floor Area {m2}
  ,                                       !- Zone Inside Convection Algorithm
  ,                                       !- Zone Outside Convection Algorithm
  ,                                       !- Zone Conditioning Equipment List Name
  {25e3b3de-0b24-4f43-9398-9bc4332b5e17}, !- Zone Air Inlet Port List
  {9ee57731-289f-4fa0-8737-53fe69b16eae}, !- Zone Air Exhaust Port List
  {7eee84ea-8135-43c6-9b7e-6874f7e6f8b6}, !- Zone Air Node Name
  {7a9f0c99-8a98-447c-8580-4fd7b3dc25c0}, !- Zone Return Air Port List
  ,                                       !- Primary Daylighting Control Name
  ,                                       !- Fraction of Zone Controlled by Primary Daylighting Control
  ,                                       !- Secondary Daylighting Control Name
  ,                                       !- Fraction of Zone Controlled by Secondary Daylighting Control
  ,                                       !- Illuminance Map Name
  {ac2dd220-2fc6-4493-bc88-1d9c2fdcfa65}, !- Group Rendering Name
  ,                                       !- Thermostat Name
  No;                                     !- Use Ideal Air Loads

OS:Node,